pcf
* control data
restart  estimation
    4  1693     4     0     2
    1     1 double point   1   0   0
   5.0  2.0   0.3  0.03    20
  3.0   3.0 0.001  0
  0.1
   30  0.01     4     5  0.01     5
    1     1     1
* parameter groups
b            relative 0.01  0.0  switch  2.0 parabolic
psi_s        relative 0.01  0.0  switch  2.0 parabolic
Ksmacz0      relative 0.01  0.0  switch  2.0 parabolic
alpha        relative 0.01  0.0  switch  2.0 parabolic
* parameter data
b           none relative   0.5  0.01     15.0       b          1.0  0.0  1
psi_s       none relative   -0.024  -0.3     -0.01      psi_s      1.0  0.0  1
ksmacz0     log  factor    7.300000      1.0e-1  1.0e+10  ksmacz0    1.0  0.0  1
alpha       none relative    3.000000      1.01        10.0       alpha      1.0  0.0  1
* observation groups
storageobs
timeobs
* observation data
e1    -249.94927004155682    1.0   storageobs
e2    -249.84660110292847    1.0   storageobs
e3    -249.74393216430016    1.0   storageobs
e4    -249.64126322567182    1.0   storageobs
e5    -249.53859428704354    1.0   storageobs
e6    -249.4359253484152    1.0   storageobs
e7    -249.33325640978688    1.0   storageobs
e8    -249.23058747115857    1.0   storageobs
e9    -249.12791853253026    1.0   storageobs
e10    -249.02524959390195    1.0   storageobs
e11    -248.92258065527363    1.0   storageobs
e12    -248.81991171664532    1.0   storageobs
e13    -248.71724277801698    1.0   storageobs
e14    -248.61457383938864    1.0   storageobs
e15    -248.51190490076036    1.0   storageobs
e16    -248.40923596213202    1.0   storageobs
e17    -248.3065670235037    1.0   storageobs
e18    -248.20389808487539    1.0   storageobs
e19    -248.10122914624708    1.0   storageobs
e20    -247.99856020761877    1.0   storageobs
e21    -247.89589126899045    1.0   storageobs
e22    -247.79322233036214    1.0   storageobs
e23    -247.6905533917338    1.0   storageobs
e24    -246.72452624810168    1.0   storageobs
e25    -246.6350189606915    1.0   storageobs
e26    -246.54551167328134    1.0   storageobs
e27    -246.45600438587113    1.0   storageobs
e28    -246.36649709846097    1.0   storageobs
e29    -246.27698981105081    1.0   storageobs
e30    -246.18748252364063    1.0   storageobs
e31    -246.09797523623047    1.0   storageobs
e32    -246.00846794882025    1.0   storageobs
e33    -245.9189606614101    1.0   storageobs
e34    -245.82945337399994    1.0   storageobs
e35    -245.73994608658973    1.0   storageobs
e36    -245.65043879917957    1.0   storageobs
e37    -245.56093151176938    1.0   storageobs
e38    -245.4714242243592    1.0   storageobs
e39    -245.38191693694901    1.0   storageobs
e40    -245.29240964953885    1.0   storageobs
e41    -245.20290236212864    1.0   storageobs
e42    -245.11339507471848    1.0   storageobs
e43    -245.02388778730833    1.0   storageobs
e44    -244.93438049989811    1.0   storageobs
e45    -244.84487321248795    1.0   storageobs
e46    -244.75536592507777    1.0   storageobs
e47    -244.66585863766761    1.0   storageobs
e48    -244.5763513502574    1.0   storageobs
e49    -244.48684406284724    1.0   storageobs
e50    -244.39733677543708    1.0   storageobs
e51    -244.3078294880269    1.0   storageobs
e52    -244.21832220061674    1.0   storageobs
e53    -244.12881491320653    1.0   storageobs
e54    -244.03930762579637    1.0   storageobs
e55    -243.50955356695613    1.0   storageobs
e56    -243.41194634794218    1.0   storageobs
e57    -243.31433912892825    1.0   storageobs
e58    -243.2167319099143    1.0   storageobs
e59    -243.11912469090038    1.0   storageobs
e60    -243.02151747188645    1.0   storageobs
e61    -242.92391025287253    1.0   storageobs
e62    -242.82630303385861    1.0   storageobs
e63    -242.72869581484466    1.0   storageobs
e64    -242.63108859583073    1.0   storageobs
e65    -242.53348137681678    1.0   storageobs
e66    -242.43587415780286    1.0   storageobs
e67    -242.33826693878893    1.0   storageobs
e68    -242.24065971977501    1.0   storageobs
e69    -242.14305250076109    1.0   storageobs
e70    -242.04544528174713    1.0   storageobs
e71    -241.94783806273318    1.0   storageobs
e72    -241.85023084371929    1.0   storageobs
e73    -241.75262362470534    1.0   storageobs
e74    -241.65501640569141    1.0   storageobs
e75    -241.55740918667749    1.0   storageobs
e76    -241.45980196766357    1.0   storageobs
e77    -241.36219474864964    1.0   storageobs
e78    -241.26458752963569    1.0   storageobs
e79    -241.16698031062174    1.0   storageobs
e80    -241.06937309160782    1.0   storageobs
e81    -240.97176587259389    1.0   storageobs
e82    -240.87415865357997    1.0   storageobs
e83    -240.77655143456604    1.0   storageobs
e84    -240.67894421555209    1.0   storageobs
e85    -240.58133699653817    1.0   storageobs
e86    -240.48372977752422    1.0   storageobs
e87    -240.38612255851029    1.0   storageobs
e88    -240.28851533949637    1.0   storageobs
e89    -240.19090812048245    1.0   storageobs
e90    -240.09330090146852    1.0   storageobs
e91    -239.99569368245457    1.0   storageobs
e92    -239.89808646344062    1.0   storageobs
e93    -239.80047924442673    1.0   storageobs
e94    -239.70287202541277    1.0   storageobs
e95    -239.60526480639885    1.0   storageobs
e96    -239.50765758738493    1.0   storageobs
e97    -239.410050368371    1.0   storageobs
e98    -239.31244314935708    1.0   storageobs
e99    -239.21483593034313    1.0   storageobs
e100    -239.11722871132918    1.0   storageobs
e101    -239.01962149231525    1.0   storageobs
e102    -238.92201427330133    1.0   storageobs
e103    -238.82440705428741    1.0   storageobs
e104    -238.72679983527348    1.0   storageobs
e105    -238.62919261625956    1.0   storageobs
e106    -238.53158539724561    1.0   storageobs
e107    -238.43397817823165    1.0   storageobs
e108    -238.33637095921773    1.0   storageobs
e109    -238.23876374020381    1.0   storageobs
e110    -238.14115652118988    1.0   storageobs
e111    -238.04354930217596    1.0   storageobs
e112    -237.94594208316201    1.0   storageobs
e113    -237.84833486414809    1.0   storageobs
e114    -237.75072764513416    1.0   storageobs
e115    -237.65312042612021    1.0   storageobs
e116    -237.52773634565702    1.0   storageobs
e117    -237.4042106388556    1.0   storageobs
e118    -237.28068493205413    1.0   storageobs
e119    -237.15715922525268    1.0   storageobs
e120    -241.39075940086082    1.0   storageobs
e121    -241.13211267200859    1.0   storageobs
e122    -240.87346594315636    1.0   storageobs
e123    -240.61481921430413    1.0   storageobs
e124    -240.35617248545191    1.0   storageobs
e125    -240.09752575659968    1.0   storageobs
e126    -239.83887902774745    1.0   storageobs
e127    -239.5802322988952    1.0   storageobs
e128    -239.32158557004297    1.0   storageobs
e129    -239.06293884119077    1.0   storageobs
e130    -238.80429211233852    1.0   storageobs
e131    -238.54564538348629    1.0   storageobs
e132    -238.28699865463406    1.0   storageobs
e133    -238.02835192578178    1.0   storageobs
e134    -237.76970519692955    1.0   storageobs
e135    -237.51105846807732    1.0   storageobs
e136    -237.2524117392251    1.0   storageobs
e137    -236.99376501037287    1.0   storageobs
e138    -236.73511828152064    1.0   storageobs
e139    -236.47647155266841    1.0   storageobs
e140    -236.21782482381619    1.0   storageobs
e141    -235.95917809496393    1.0   storageobs
e142    -235.7005313661117    1.0   storageobs
e143    -235.44188463725948    1.0   storageobs
e144    -235.18323790840725    1.0   storageobs
e145    -234.92459117955502    1.0   storageobs
e146    -234.6659444507028    1.0   storageobs
e147    -234.40729772185054    1.0   storageobs
e148    -234.14865099299831    1.0   storageobs
e149    -233.89000426414609    1.0   storageobs
e150    -233.63135753529386    1.0   storageobs
e151    -233.37271080644163    1.0   storageobs
e152    -233.1140640775894    1.0   storageobs
e153    -232.85541734873718    1.0   storageobs
e154    -232.59677061988495    1.0   storageobs
e155    -232.33812389103267    1.0   storageobs
e156    -232.07947716218044    1.0   storageobs
e157    -231.82083043332827    1.0   storageobs
e158    -231.56218370447596    1.0   storageobs
e159    -231.30353697562376    1.0   storageobs
e160    -231.04489024677153    1.0   storageobs
e161    -230.78624351791927    1.0   storageobs
e162    -230.52759678906705    1.0   storageobs
e163    -230.26895006021482    1.0   storageobs
e164    -230.01030333136259    1.0   storageobs
e165    -229.75165660251037    1.0   storageobs
e166    -232.31694179107083    1.0   storageobs
e167    -231.973221718384    1.0   storageobs
e168    -231.62950164569716    1.0   storageobs
e169    -231.28578157301033    1.0   storageobs
e170    -230.94206150032346    1.0   storageobs
e171    -230.59834142763668    1.0   storageobs
e172    -230.25462135494985    1.0   storageobs
e173    -229.91090128226298    1.0   storageobs
e174    -229.56718120957615    1.0   storageobs
e175    -229.22346113688934    1.0   storageobs
e176    -228.87974106420251    1.0   storageobs
e177    -228.53602099151567    1.0   storageobs
e178    -228.19230091882883    1.0   storageobs
e179    -227.84858084614203    1.0   storageobs
e180    -227.50486077345519    1.0   storageobs
e181    -227.16114070076836    1.0   storageobs
e182    -226.81742062808152    1.0   storageobs
e183    -226.47370055539469    1.0   storageobs
e184    -226.12998048270785    1.0   storageobs
e185    -225.78626041002104    1.0   storageobs
e186    -225.44254033733421    1.0   storageobs
e187    -225.09882026464737    1.0   storageobs
e188    -224.75510019196054    1.0   storageobs
e189    -224.4113801192737    1.0   storageobs
e190    -224.06766004658689    1.0   storageobs
e191    -223.72393997390009    1.0   storageobs
e192    -223.38021990121325    1.0   storageobs
e193    -223.03649982852642    1.0   storageobs
e194    -222.69277975583958    1.0   storageobs
e195    -222.34905968315275    1.0   storageobs
e196    -222.00533961046591    1.0   storageobs
e197    -221.66161953777905    1.0   storageobs
e198    -221.31789946509224    1.0   storageobs
e199    -220.9741793924054    1.0   storageobs
e200    -220.6304593197186    1.0   storageobs
e201    -220.28673924703176    1.0   storageobs
e202    -219.94301917434493    1.0   storageobs
e203    -219.59929910165809    1.0   storageobs
e204    -219.25557902897125    1.0   storageobs
e205    -218.91185895628445    1.0   storageobs
e206    -218.56813888359756    1.0   storageobs
e207    -218.22441881091075    1.0   storageobs
e208    -217.88069873822394    1.0   storageobs
e209    -217.53697866553708    1.0   storageobs
e210    -217.19325859285024    1.0   storageobs
e211    -216.84953852016343    1.0   storageobs
e212    -216.5058184474766    1.0   storageobs
e213    -216.16209837478976    1.0   storageobs
e214    -215.81837830210296    1.0   storageobs
e215    -215.47465822941612    1.0   storageobs
e216    -215.13093815672929    1.0   storageobs
e217    -214.78721808404245    1.0   storageobs
e218    -214.44349801135562    1.0   storageobs
e219    -216.92724829611348    1.0   storageobs
e220    -216.62513721623978    1.0   storageobs
e221    -213.45306639302379    1.0   storageobs
e222    -213.06591499974022    1.0   storageobs
e223    -212.67876360645664    1.0   storageobs
e224    -212.29161221317304    1.0   storageobs
e225    -211.90446081988949    1.0   storageobs
e226    -211.51730942660592    1.0   storageobs
e227    -211.13015803332235    1.0   storageobs
e228    -210.74300664003874    1.0   storageobs
e229    -210.35585524675517    1.0   storageobs
e230    -209.9687038534716    1.0   storageobs
e231    -209.58155246018802    1.0   storageobs
e232    -209.19440106690445    1.0   storageobs
e233    -213.41803151107354    1.0   storageobs
e234    -213.27470271192655    1.0   storageobs
e235    -213.13137391277957    1.0   storageobs
e236    -212.98804511363261    1.0   storageobs
e237    -212.84471631448565    1.0   storageobs
e238    -212.70138751533867    1.0   storageobs
e239    -212.55805871619168    1.0   storageobs
e240    -212.41472991704472    1.0   storageobs
e241    -212.27140111789777    1.0   storageobs
e242    -212.12807231875078    1.0   storageobs
e243    -211.9847435196038    1.0   storageobs
e244    -211.84141472045684    1.0   storageobs
e245    -211.69808592130988    1.0   storageobs
e246    -211.5547571221629    1.0   storageobs
e247    -211.41142832301591    1.0   storageobs
e248    -211.26809952386895    1.0   storageobs
e249    -211.124770724722    1.0   storageobs
e250    -213.46374388371592    1.0   storageobs
e251    -213.25678035078431    1.0   storageobs
e252    -213.0498168178527    1.0   storageobs
e253    -212.84285328492103    1.0   storageobs
e254    -212.63588975198937    1.0   storageobs
e255    -212.42892621905776    1.0   storageobs
e256    -212.22196268612609    1.0   storageobs
e257    -212.01499915319445    1.0   storageobs
e258    -211.80803562026281    1.0   storageobs
e259    -211.6010720873312    1.0   storageobs
e260    -211.39410855439959    1.0   storageobs
e261    -211.18714502146793    1.0   storageobs
e262    -210.98018148853626    1.0   storageobs
e263    -210.77321795560465    1.0   storageobs
e264    -210.56625442267304    1.0   storageobs
e265    -210.3592908897414    1.0   storageobs
e266    -210.15232735680971    1.0   storageobs
e267    -208.06056692406571    1.0   storageobs
e268    -207.89429884508991    1.0   storageobs
e269    -207.72803076611413    1.0   storageobs
e270    -207.5617626871383    1.0   storageobs
e271    -207.39549460816252    1.0   storageobs
e272    -207.22922652918675    1.0   storageobs
e273    -207.06295845021091    1.0   storageobs
e274    -206.89669037123514    1.0   storageobs
e275    -207.68426428988928    1.0   storageobs
e276    -207.50064137165572    1.0   storageobs
e277    -207.31701845342212    1.0   storageobs
e278    -207.13339553518853    1.0   storageobs
e279    -206.94977261695499    1.0   storageobs
e280    -206.76614969872145    1.0   storageobs
e281    -206.58252678048785    1.0   storageobs
e282    -206.39890386225426    1.0   storageobs
e283    -206.21528094402069    1.0   storageobs
e284    -206.03165802578715    1.0   storageobs
e285    -205.84803510755356    1.0   storageobs
e286    -205.66441218931996    1.0   storageobs
e287    -205.48078927108639    1.0   storageobs
e288    -205.29716635285286    1.0   storageobs
e289    -205.11354343461926    1.0   storageobs
e290    -206.0402337163122    1.0   storageobs
e291    -205.77992864857674    1.0   storageobs
e292    -205.51962358084123    1.0   storageobs
e293    -205.2593185131058    1.0   storageobs
e294    -204.99901344537025    1.0   storageobs
e295    -204.73870837763482    1.0   storageobs
e296    -202.80557105982362    1.0   storageobs
e297    -202.57631240209432    1.0   storageobs
e298    -202.34705374436504    1.0   storageobs
e299    -202.11779508663571    1.0   storageobs
e300    -201.88853642890643    1.0   storageobs
e301    -201.65927777117716    1.0   storageobs
e302    -201.43001911344786    1.0   storageobs
e303    -201.20076045571858    1.0   storageobs
e304    -200.97150179798928    1.0   storageobs
e305    -200.74224314025997    1.0   storageobs
e306    -200.5129844825307    1.0   storageobs
e307    -200.28372582480142    1.0   storageobs
e308    -200.05446716707212    1.0   storageobs
e309    -199.82520850934284    1.0   storageobs
e310    -199.59594985161351    1.0   storageobs
e311    -199.36669119388424    1.0   storageobs
e312    -199.13743253615493    1.0   storageobs
e313    -198.90817387842566    1.0   storageobs
e314    -198.67891522069633    1.0   storageobs
e315    -198.44965656296702    1.0   storageobs
e316    -198.22039790523777    1.0   storageobs
e317    -197.99113924750847    1.0   storageobs
e318    -197.7618805897792    1.0   storageobs
e319    -197.53262193204992    1.0   storageobs
e320    -197.30336327432059    1.0   storageobs
e321    -197.07410461659131    1.0   storageobs
e322    -196.84484595886201    1.0   storageobs
e323    -197.68548466567253    1.0   storageobs
e324    -197.39913928749036    1.0   storageobs
e325    -198.26294358458509    1.0   storageobs
e326    -198.02765112598331    1.0   storageobs
e327    -197.79235866738151    1.0   storageobs
e328    -200.61090499741232    1.0   storageobs
e329    -200.35547145783971    1.0   storageobs
e330    -200.10003791826708    1.0   storageobs
e331    -199.8446043786945    1.0   storageobs
e332    -199.58917083912189    1.0   storageobs
e333    -199.807594992345    1.0   storageobs
e334    -199.55574060298579    1.0   storageobs
e335    -200.46455414565298    1.0   storageobs
e336    -200.2229970826865    1.0   storageobs
e337    -199.98144001972005    1.0   storageobs
e338    -199.73988295675355    1.0   storageobs
e339    -199.49832589378707    1.0   storageobs
e340    -199.25676883082059    1.0   storageobs
e341    -199.89915307281788    1.0   storageobs
e342    -199.72108106104935    1.0   storageobs
e343    -201.09363259866063    1.0   storageobs
e344    -200.84704942374279    1.0   storageobs
e345    -200.600466248825    1.0   storageobs
e346    -200.35388307390716    1.0   storageobs
e347    -200.63897861878897    1.0   storageobs
e348    -200.38814055768614    1.0   storageobs
e349    -200.13730249658332    1.0   storageobs
e350    -199.88646443548052    1.0   storageobs
e351    -199.63562637437767    1.0   storageobs
e352    -199.38478831327484    1.0   storageobs
e353    -199.13395025217201    1.0   storageobs
e354    -198.88311219106913    1.0   storageobs
e355    -199.21352872203971    1.0   storageobs
e356    -199.81005493615032    1.0   storageobs
e357    -199.56274764738589    1.0   storageobs
e358    -199.31544035862146    1.0   storageobs
e359    -199.70202589828133    1.0   storageobs
e360    -199.43080228031022    1.0   storageobs
e361    -199.14265014114366    1.0   storageobs
e362    -198.87951371970195    1.0   storageobs
e363    -198.61637729826026    1.0   storageobs
e364    -198.3532408768186    1.0   storageobs
e365    -198.09010445537692    1.0   storageobs
e366    -197.8269680339352    1.0   storageobs
e367    -197.56383161249352    1.0   storageobs
e368    -197.30069519105189    1.0   storageobs
e369    -197.0375587696102    1.0   storageobs
e370    -196.77442234816849    1.0   storageobs
e371    -196.5112859267268    1.0   storageobs
e372    -196.24814950528514    1.0   storageobs
e373    -195.98501308384346    1.0   storageobs
e374    -196.10370938383454    1.0   storageobs
e375    -195.84331238377473    1.0   storageobs
e376    -195.58291538371492    1.0   storageobs
e377    -195.32251838365508    1.0   storageobs
e378    -195.0621213835953    1.0   storageobs
e379    -194.80172438353549    1.0   storageobs
e380    -194.54132738347565    1.0   storageobs
e381    -194.28093038341584    1.0   storageobs
e382    -195.17529197231141    1.0   storageobs
e383    -194.96664656301863    1.0   storageobs
e384    -194.75800115372587    1.0   storageobs
e385    -194.54935574443309    1.0   storageobs
e386    -194.34071033514027    1.0   storageobs
e387    -194.13206492584752    1.0   storageobs
e388    -193.92341951655476    1.0   storageobs
e389    -193.71477410726195    1.0   storageobs
e390    -193.50612869796919    1.0   storageobs
e391    -193.29748328867637    1.0   storageobs
e392    -193.08883787938362    1.0   storageobs
e393    -192.88019247009083    1.0   storageobs
e394    -192.67154706079805    1.0   storageobs
e395    -192.46290165150526    1.0   storageobs
e396    -192.25425624221251    1.0   storageobs
e397    -192.04561083291972    1.0   storageobs
e398    -191.83696542362691    1.0   storageobs
e399    -191.90773967616983    1.0   storageobs
e400    -191.70074167787504    1.0   storageobs
e401    -192.1768385375959    1.0   storageobs
e402    -191.99823567856001    1.0   storageobs
e403    -191.81963281952412    1.0   storageobs
e404    -191.64102996048825    1.0   storageobs
e405    -191.46242710145236    1.0   storageobs
e406    -191.28382424241642    1.0   storageobs
e407    -191.10522138338055    1.0   storageobs
e408    -190.92661852434469    1.0   storageobs
e409    -190.74801566530877    1.0   storageobs
e410    -189.87956557228884    1.0   storageobs
e411    -189.68416007051198    1.0   storageobs
e412    -189.51823962657258    1.0   storageobs
e413    -190.22077500196394    1.0   storageobs
e414    -190.00973390759148    1.0   storageobs
e415    -189.79869281321905    1.0   storageobs
e416    -189.58765171884659    1.0   storageobs
e417    -189.37661062447415    1.0   storageobs
e418    -189.80834650785906    1.0   storageobs
e419    -189.60785342151664    1.0   storageobs
e420    -189.40736033517427    1.0   storageobs
e421    -189.20686724883188    1.0   storageobs
e422    -189.00637416248949    1.0   storageobs
e423    -188.80588107614716    1.0   storageobs
e424    -188.60538798980474    1.0   storageobs
e425    -188.40489490346235    1.0   storageobs
e426    -191.06309006881611    1.0   storageobs
e427    -190.78414912813111    1.0   storageobs
e428    -190.5052081874461    1.0   storageobs
e429    -190.2262672467611    1.0   storageobs
e430    -191.62049927902635    1.0   storageobs
e431    -191.31450903427091    1.0   storageobs
e432    -191.00851878951551    1.0   storageobs
e433    -190.7025285447601    1.0   storageobs
e434    -190.39653830000469    1.0   storageobs
e435    -190.09054805524929    1.0   storageobs
e436    -189.78455781049388    1.0   storageobs
e437    -189.56896156999599    1.0   storageobs
e438    -189.23863440913578    1.0   storageobs
e439    -188.90830724827569    1.0   storageobs
e440    -188.57798008741551    1.0   storageobs
e441    -188.24765292655536    1.0   storageobs
e442    -187.91732576569521    1.0   storageobs
e443    -187.58699860483503    1.0   storageobs
e444    -187.27497589569867    1.0   storageobs
e445    -187.13155129312688    1.0   storageobs
e446    -186.65515306206009    1.0   storageobs
e447    -186.17875483099334    1.0   storageobs
e448    -185.70235659992662    1.0   storageobs
e449    -185.22595836885986    1.0   storageobs
e450    -185.30715781703384    1.0   storageobs
e451    -184.98848761990016    1.0   storageobs
e452    -184.66981742276647    1.0   storageobs
e453    -184.60154210953203    1.0   storageobs
e454    -184.27137923571448    1.0   storageobs
e455    -183.94121636189686    1.0   storageobs
e456    -183.61105348807931    1.0   storageobs
e457    -183.28089061426172    1.0   storageobs
e458    -182.95072774044414    1.0   storageobs
e459    -182.62056486662655    1.0   storageobs
e460    -182.29040199280897    1.0   storageobs
e461    -181.96023911899141    1.0   storageobs
e462    -181.6300762451738    1.0   storageobs
e463    -181.29991337135621    1.0   storageobs
e464    -180.44953757935153    1.0   storageobs
e465    -180.13512067124211    1.0   storageobs
e466    -179.66376414353152    1.0   storageobs
e467    -179.04064452610862    1.0   storageobs
e468    -178.72924680810863    1.0   storageobs
e469    -178.41784909010866    1.0   storageobs
e470    -178.37572968358424    1.0   storageobs
e471    -178.06564787529854    1.0   storageobs
e472    -177.75556606701289    1.0   storageobs
e473    -177.44548425872725    1.0   storageobs
e474    -177.45549329448653    1.0   storageobs
e475    -177.48389984054427    1.0   storageobs
e476    -177.0999125593261    1.0   storageobs
e477    -176.7159252781079    1.0   storageobs
e478    -176.18890971629858    1.0   storageobs
e479    -176.4765705042054    1.0   storageobs
e480    -176.09216520313976    1.0   storageobs
e481    -175.70775990207414    1.0   storageobs
e482    -175.32335460100853    1.0   storageobs
e483    -174.93894929994286    1.0   storageobs
e484    -174.55454399887725    1.0   storageobs
e485    -174.17013869781167    1.0   storageobs
e486    -174.68776412706461    1.0   storageobs
e487    -175.92823871629912    1.0   storageobs
e488    -175.19703097544956    1.0   storageobs
e489    -174.46582323459995    1.0   storageobs
e490    -173.62122983144556    1.0   storageobs
e491    -172.85656079265749    1.0   storageobs
e492    -172.09189175386936    1.0   storageobs
e493    -171.32722271508123    1.0   storageobs
e494    -172.28845834235855    1.0   storageobs
e495    -171.96286846563393    1.0   storageobs
e496    -171.62479410718799    1.0   storageobs
e497    -171.286719748742    1.0   storageobs
e498    -172.66674091192752    1.0   storageobs
e499    -171.74906159799585    1.0   storageobs
e500    -171.34478968264193    1.0   storageobs
e501    -171.15246331825199    1.0   storageobs
e502    -170.86074632451567    1.0   storageobs
e503    -170.56902933077933    1.0   storageobs
e504    -170.27731233704299    1.0   storageobs
e505    -169.88339001148631    1.0   storageobs
e506    -169.59951033205817    1.0   storageobs
e507    -169.31563065263009    1.0   storageobs
e508    -169.03175097320198    1.0   storageobs
e509    -168.74787129377384    1.0   storageobs
e510    -168.46399161434576    1.0   storageobs
e511    -168.18011193491765    1.0   storageobs
e512    -168.15753427698596    1.0   storageobs
e513    -167.87681026895919    1.0   storageobs
e514    -167.5960862609324    1.0   storageobs
e515    -167.31536225290566    1.0   storageobs
e516    -167.03463824487889    1.0   storageobs
e517    -166.75391423685215    1.0   storageobs
e518    -166.6534747223792    1.0   storageobs
e519    -166.35633574958845    1.0   storageobs
e520    -166.05919677679773    1.0   storageobs
e521    -165.76205780400701    1.0   storageobs
e522    -165.96920560829466    1.0   storageobs
e523    -165.68147534687708    1.0   storageobs
e524    -165.39374508545947    1.0   storageobs
e525    -165.6502865892113    1.0   storageobs
e526    -165.34705352618977    1.0   storageobs
e527    -165.04382046316823    1.0   storageobs
e528    -164.80806120871546    1.0   storageobs
e529    -164.46710639992946    1.0   storageobs
e530    -164.12615159114344    1.0   storageobs
e531    -163.78519678235742    1.0   storageobs
e532    -163.44424197357139    1.0   storageobs
e533    -161.33247047919099    1.0   storageobs
e534    -160.95937887335589    1.0   storageobs
e535    -160.63012052380139    1.0   storageobs
e536    -160.32033990282167    1.0   storageobs
e537    -159.98279623825044    1.0   storageobs
e538    -159.62667308338499    1.0   storageobs
e539    -160.31606133210732    1.0   storageobs
e540    -159.9047850541175    1.0   storageobs
e541    -158.91886518872317    1.0   storageobs
e542    -158.57275688967496    1.0   storageobs
e543    -158.22664859062675    1.0   storageobs
e544    -157.88054029157851    1.0   storageobs
e545    -157.5344319925303    1.0   storageobs
e546    -157.18832369348212    1.0   storageobs
e547    -156.84221539443391    1.0   storageobs
e548    -156.4961070953857    1.0   storageobs
e549    -158.36798085211049    1.0   storageobs
e550    -158.05125194944071    1.0   storageobs
e551    -163.27934709795878    1.0   storageobs
e552    -162.81773413666056    1.0   storageobs
e553    -162.35612117536229    1.0   storageobs
e554    -161.89450821406405    1.0   storageobs
e555    -161.4328952527658    1.0   storageobs
e556    -160.97128229146753    1.0   storageobs
e557    -161.87348563833015    1.0   storageobs
e558    -161.42645858878981    1.0   storageobs
e559    -160.9794315392495    1.0   storageobs
e560    -160.53240448970917    1.0   storageobs
e561    -160.08537744016883    1.0   storageobs
e562    -159.63835039062849    1.0   storageobs
e563    -159.19132334108812    1.0   storageobs
e564    -158.74429629154778    1.0   storageobs
e565    -158.01060408479893    1.0   storageobs
e566    -157.53209029009372    1.0   storageobs
e567    -157.05357649538851    1.0   storageobs
e568    -156.57506270068333    1.0   storageobs
e569    -156.09654890597815    1.0   storageobs
e570    -159.1164882088342    1.0   storageobs
e571    -158.38146246835757    1.0   storageobs
e572    -157.64643672788097    1.0   storageobs
e573    -156.91141098740439    1.0   storageobs
e574    -156.17638524692779    1.0   storageobs
e575    -154.83946228939678    1.0   storageobs
e576    -154.00546747306075    1.0   storageobs
e577    -153.17147265672466    1.0   storageobs
e578    -152.33747784038866    1.0   storageobs
e579    -151.29916561994872    1.0   storageobs
e580    -150.49102790242907    1.0   storageobs
e581    -149.68289018490938    1.0   storageobs
e582    -149.36595239745017    1.0   storageobs
e583    -147.74870978113074    1.0   storageobs
e584    -146.89218290468148    1.0   storageobs
e585    0    1.0   timeobs
e586    -0.030267701531862711    1.0   timeobs
e587    0.11888443155322871    1.0   timeobs
e588    0.21153473990422395    1.0   timeobs
e589    0.27945796252974403    1.0   timeobs
e590    0.36345109949358434    1.0   timeobs
e591    0.33358915018563812    1.0   timeobs
e592    0.24065128197553645    1.0   timeobs
e593    0.51302984548103159    1.0   timeobs
e594    0.63982811182463006    1.0   timeobs
e595    0.65980264525626509    1.0   timeobs
e596    0.67736344478852684    1.0   timeobs
e597    0.78900325096134682    1.0   timeobs
e598    0.83766143205129318    1.0   timeobs
e599    0.90643119208911183    1.0   timeobs
e600    1.0189831645511114    1.0   timeobs
e601    1.0714286787897047    1.0   timeobs
e602    1.1236941433952026    1.0   timeobs
e603    1.1489765445105802    1.0   timeobs
e604    1.2117757022549791    1.0   timeobs
e605    1.2666243926090559    1.0   timeobs
e606    1.3173174731668971    1.0   timeobs
e607    1.4061922091391701    1.0   timeobs
e608    1.5163522714952478    1.0   timeobs
e609    1.5487542856127143    1.0   timeobs
e610    1.6238873704592001    1.0   timeobs
e611    1.7042333606299374    1.0   timeobs
e612    1.7534664270917626    1.0   timeobs
e613    1.790151827329483    1.0   timeobs