pcf
* control data
restart  estimation
    4  1410     4     0     2
    1     1 double point   1   0   0
   0.0  2.0   0.3  0.03    1
  3.0   3.0 0.001  0
  0.1  boundscale
   30  0.01     4    8   0.01     8
    1     1     1
* singular value decomposition
1
10 1.0e-6
1
* parameter groups
b            relative 0.01  0.0  switch  2.0 parabolic
psi_s        relative 0.01  0.0  switch  2.0 parabolic
Ksmacz0      relative 0.01  0.0  switch  2.0 parabolic
alpha        relative 0.01  0.0  switch  2.0 parabolic
* parameter data
b           none relative   7.4  0.01     20.0       b          1.0   0.0  1
psi_s       none relative   -0.024  -0.3     -0.0001      psi_s      1.0  0.0  1 
ksmacz0     log  factor    7.300000      1.0e-01  1.0e+10  ksmacz0    1.0  0.0  1
alpha       none relative    3.000000      1        10.0    alpha      1.0  0.0  1
* observation groups
storageobs   ekolongouma_storageobs_errcov4.dat
timeobs   ekolongouma_timeobs_errcov4.dat
* observation data
e1    -140.88432248936041    1.0   storageobs
e2    -140.75188041372212    1.0   storageobs
e3    -140.6194383380838    1.0   storageobs
e4    -140.4869962624455    1.0   storageobs
e5    -140.35455418680721    1.0   storageobs
e6    -140.22211211116888    1.0   storageobs
e7    -140.08967003553056    1.0   storageobs
e8    -139.95722795989226    1.0   storageobs
e9    -139.82478588425397    1.0   storageobs
e10    -139.69234380861565    1.0   storageobs
e11    -139.55990173297735    1.0   storageobs
e12    -139.42745965733906    1.0   storageobs
e13    -139.29501758170076    1.0   storageobs
e14    -139.16257550606247    1.0   storageobs
e15    -139.03013343042414    1.0   storageobs
e16    -138.89769135478582    1.0   storageobs
e17    -138.76524927914755    1.0   storageobs
e18    -138.63280720350923    1.0   storageobs
e19    -138.50036512787091    1.0   storageobs
e20    -138.36792305223261    1.0   storageobs
e21    -138.23548097659432    1.0   storageobs
e22    -138.10303890095599    1.0   storageobs
e23    -137.9705968253177    1.0   storageobs
e24    -137.8381547496794    1.0   storageobs
e25    -137.70571267404108    1.0   storageobs
e26    -137.57327059840279    1.0   storageobs
e27    -137.44082852276449    1.0   storageobs
e28    -137.30838644712617    1.0   storageobs
e29    -137.17594437148784    1.0   storageobs
e30    -137.04350229584958    1.0   storageobs
e31    -136.91106022021125    1.0   storageobs
e32    -136.77861814457296    1.0   storageobs
e33    -136.64617606893466    1.0   storageobs
e34    -136.51373399329634    1.0   storageobs
e35    -136.38129191765805    1.0   storageobs
e36    -136.24884984201975    1.0   storageobs
e37    -136.11640776638143    1.0   storageobs
e38    -135.98396569074313    1.0   storageobs
e39    -135.85152361510484    1.0   storageobs
e40    -135.71908153946652    1.0   storageobs
e41    -135.58663946382819    1.0   storageobs
e42    -135.45419738818993    1.0   storageobs
e43    -135.3217553125516    1.0   storageobs
e44    -135.18931323691328    1.0   storageobs
e45    -135.05687116127498    1.0   storageobs
e46    -134.92442908563669    1.0   storageobs
e47    -134.79198700999839    1.0   storageobs
e48    -134.6595449343601    1.0   storageobs
e49    -134.52710285872178    1.0   storageobs
e50    -134.39466078308345    1.0   storageobs
e51    -134.26221870744519    1.0   storageobs
e52    -134.12977663180686    1.0   storageobs
e53    -133.99733455616854    1.0   storageobs
e54    -133.86489248053024    1.0   storageobs
e55    -133.73245040489195    1.0   storageobs
e56    -133.60000832925363    1.0   storageobs
e57    -133.46756625361533    1.0   storageobs
e58    -133.33512417797704    1.0   storageobs
e59    -135.23717759051075    1.0   storageobs
e60    -135.04230224848172    1.0   storageobs
e61    -134.84742690645271    1.0   storageobs
e62    -134.65255156442367    1.0   storageobs
e63    -134.45767622239467    1.0   storageobs
e64    -134.16210298556805    1.0   storageobs
e65    -133.96413492224437    1.0   storageobs
e66    -133.76616685892074    1.0   storageobs
e67    -133.56819879559708    1.0   storageobs
e68    -133.37023073227346    1.0   storageobs
e69    -133.1722626689498    1.0   storageobs
e70    -134.47051286824055    1.0   storageobs
e71    -134.24026517001178    1.0   storageobs
e72    -134.0100174717829    1.0   storageobs
e73    -133.77976977355408    1.0   storageobs
e74    -133.54952207532526    1.0   storageobs
e75    -133.31927437709641    1.0   storageobs
e76    -133.08902667886755    1.0   storageobs
e77    -132.85877898063873    1.0   storageobs
e78    -132.62853128240991    1.0   storageobs
e79    -132.39828358418106    1.0   storageobs
e80    -132.16803588595224    1.0   storageobs
e81    -131.93778818772341    1.0   storageobs
e82    -131.70754048949456    1.0   storageobs
e83    -131.47729279126574    1.0   storageobs
e84    -131.24704509303689    1.0   storageobs
e85    -131.01679739480807    1.0   storageobs
e86    -130.78654969657921    1.0   storageobs
e87    -130.35280976921851    1.0   storageobs
e88    -130.13973321843849    1.0   storageobs
e89    -129.92665666765842    1.0   storageobs
e90    -129.71358011687838    1.0   storageobs
e91    -129.50050356609833    1.0   storageobs
e92    -129.28742701531829    1.0   storageobs
e93    -129.07435046453821    1.0   storageobs
e94    -128.8612739137582    1.0   storageobs
e95    -128.64819736297812    1.0   storageobs
e96    -128.43512081219805    1.0   storageobs
e97    -128.22204426141801    1.0   storageobs
e98    -128.00896771063796    1.0   storageobs
e99    -129.20624327966695    1.0   storageobs
e100    -128.89405587112793    1.0   storageobs
e101    -128.58186846258891    1.0   storageobs
e102    -128.2696810540499    1.0   storageobs
e103    -127.95749364551088    1.0   storageobs
e104    -127.64530623697186    1.0   storageobs
e105    -127.33311882843287    1.0   storageobs
e106    -127.02093141989386    1.0   storageobs
e107    -126.44127415027424    1.0   storageobs
e108    -126.1003280013865    1.0   storageobs
e109    -125.75938185249876    1.0   storageobs
e110    -125.41843570361105    1.0   storageobs
e111    -125.0774895547233    1.0   storageobs
e112    -123.71455889308822    1.0   storageobs
e113    -123.40564410769048    1.0   storageobs
e114    -123.09672932229267    1.0   storageobs
e115    -122.32172150731112    1.0   storageobs
e116    -121.44233690103572    1.0   storageobs
e117    -121.13560453372769    1.0   storageobs
e118    -120.82887216641961    1.0   storageobs
e119    -120.52213979911157    1.0   storageobs
e120    -120.21540743180353    1.0   storageobs
e121    -119.90867506449545    1.0   storageobs
e122    -119.60194269718741    1.0   storageobs
e123    -119.35985629429271    1.0   storageobs
e124    -119.05498242805643    1.0   storageobs
e125    -118.75010856182014    1.0   storageobs
e126    -118.44523469558385    1.0   storageobs
e127    -118.14036082934756    1.0   storageobs
e128    -119.31431062064321    1.0   storageobs
e129    -118.90458731107623    1.0   storageobs
e130    -118.49486400150921    1.0   storageobs
e131    -118.08514069194223    1.0   storageobs
e132    -119.36020336639697    1.0   storageobs
e133    -119.03565721444208    1.0   storageobs
e134    -118.71111106248718    1.0   storageobs
e135    -118.3865649105323    1.0   storageobs
e136    -118.06201875857739    1.0   storageobs
e137    -117.7374726066225    1.0   storageobs
e138    -117.41292645466763    1.0   storageobs
e139    -118.52433319372459    1.0   storageobs
e140    -118.19241273799032    1.0   storageobs
e141    -117.88084080146619    1.0   storageobs
e142    -117.56926886494209    1.0   storageobs
e143    -117.25769692841797    1.0   storageobs
e144    -116.94612499189384    1.0   storageobs
e145    -116.51214137977374    1.0   storageobs
e146    -116.21732087633627    1.0   storageobs
e147    -115.9225003728988    1.0   storageobs
e148    -115.10474846552687    1.0   storageobs
e149    -114.83379692645802    1.0   storageobs
e150    -115.56859501213187    1.0   storageobs
e151    -115.38491526044436    1.0   storageobs
e152    -115.20123550875687    1.0   storageobs
e153    -115.01755575706939    1.0   storageobs
e154    -114.83387600538188    1.0   storageobs
e155    -114.65019625369436    1.0   storageobs
e156    -114.46651650200685    1.0   storageobs
e157    -114.28283675031935    1.0   storageobs
e158    -114.43568256997368    1.0   storageobs
e159    -114.21171862372981    1.0   storageobs
e160    -113.6917829582333    1.0   storageobs
e161    -113.46082340988289    1.0   storageobs
e162    -113.22986386153249    1.0   storageobs
e163    -112.73573620464626    1.0   storageobs
e164    -112.52110246688223    1.0   storageobs
e165    -112.30646872911817    1.0   storageobs
e166    -112.09183499135415    1.0   storageobs
e167    -111.8772012535901    1.0   storageobs
e168    -110.98585802783504    1.0   storageobs
e169    -110.78696675661887    1.0   storageobs
e170    -110.58807548540273    1.0   storageobs
e171    -111.11589450337785    1.0   storageobs
e172    -110.93452637775607    1.0   storageobs
e173    -110.75315825213434    1.0   storageobs
e174    -110.5717901265126    1.0   storageobs
e175    -110.39042200089085    1.0   storageobs
e176    -110.20905387526908    1.0   storageobs
e177    -110.02768574964733    1.0   storageobs
e178    -110.30446734170425    1.0   storageobs
e179    -110.16764299270108    1.0   storageobs
e180    -110.03081864369793    1.0   storageobs
e181    -109.89399429469476    1.0   storageobs
e182    -109.75716994569161    1.0   storageobs
e183    -109.54095069907807    1.0   storageobs
e184    -109.41121067941755    1.0   storageobs
e185    -109.28147065975705    1.0   storageobs
e186    -109.15173064009652    1.0   storageobs
e187    -109.02199062043601    1.0   storageobs
e188    -108.89225060077547    1.0   storageobs
e189    -108.76251058111498    1.0   storageobs
e190    -108.78222953640704    1.0   storageobs
e191    -108.66148221224894    1.0   storageobs
e192    -108.54073488809078    1.0   storageobs
e193    -108.41998756393268    1.0   storageobs
e194    -108.29924023977453    1.0   storageobs
e195    -108.1784929156164    1.0   storageobs
e196    -108.05774559145827    1.0   storageobs
e197    -107.93699826730014    1.0   storageobs
e198    -107.81625094314202    1.0   storageobs
e199    -107.69550361898389    1.0   storageobs
e200    -107.57475629482579    1.0   storageobs
e201    -107.45400897066766    1.0   storageobs
e202    -107.3332616465095    1.0   storageobs
e203    -107.21251432235138    1.0   storageobs
e204    -107.09176699819325    1.0   storageobs
e205    -106.97101967403512    1.0   storageobs
e206    -106.85027234987699    1.0   storageobs
e207    -106.72952502571884    1.0   storageobs
e208    -106.32868592304489    1.0   storageobs
e209    -106.20481004302138    1.0   storageobs
e210    -106.08093416299783    1.0   storageobs
e211    -105.9570582829743    1.0   storageobs
e212    -105.83318240295077    1.0   storageobs
e213    -105.70930652292726    1.0   storageobs
e214    -105.58543064290373    1.0   storageobs
e215    -105.4615547628802    1.0   storageobs
e216    -105.33767888285666    1.0   storageobs
e217    -105.21380300283313    1.0   storageobs
e218    -104.8163685925652    1.0   storageobs
e219    -104.67389542449367    1.0   storageobs
e220    -104.54254546982884    1.0   storageobs
e221    -105.15341450960443    1.0   storageobs
e222    -108.26095341744664    1.0   storageobs
e223    -107.95872602992284    1.0   storageobs
e224    -107.65649864239903    1.0   storageobs
e225    -107.95346577067926    1.0   storageobs
e226    -107.65212139917473    1.0   storageobs
e227    -107.79358053644151    1.0   storageobs
e228    -107.58807571665793    1.0   storageobs
e229    -107.38257089687436    1.0   storageobs
e230    -107.17706607709077    1.0   storageobs
e231    -107.77136583074122    1.0   storageobs
e232    -107.44059802880702    1.0   storageobs
e233    -107.24059670843326    1.0   storageobs
e234    -106.88264179892903    1.0   storageobs
e235    -106.52468688942483    1.0   storageobs
e236    -106.16673197992063    1.0   storageobs
e237    -105.80877707041641    1.0   storageobs
e238    -105.45082216091218    1.0   storageobs
e239    -105.09286725140798    1.0   storageobs
e240    -104.73491234190378    1.0   storageobs
e241    -105.23696797839955    1.0   storageobs
e242    -105.02842652817594    1.0   storageobs
e243    -104.81988507795231    1.0   storageobs
e244    -104.65187589093212    1.0   storageobs
e245    -104.45085554414544    1.0   storageobs
e246    -104.24983519735875    1.0   storageobs
e247    -104.04881485057207    1.0   storageobs
e248    -103.84779450378541    1.0   storageobs
e249    -103.64677415699875    1.0   storageobs
e250    -103.44575381021204    1.0   storageobs
e251    -104.9065812748141    1.0   storageobs
e252    -104.7169919514433    1.0   storageobs
e253    -104.52740262807249    1.0   storageobs
e254    -104.33781330470167    1.0   storageobs
e255    -104.14822398133086    1.0   storageobs
e256    -103.95863465796006    1.0   storageobs
e257    -103.76904533458924    1.0   storageobs
e258    -103.57945601121841    1.0   storageobs
e259    -103.38986668784761    1.0   storageobs
e260    -103.2002773644768    1.0   storageobs
e261    -103.01068804110601    1.0   storageobs
e262    -102.82109871773517    1.0   storageobs
e263    -102.63150939436437    1.0   storageobs
e264    -102.44192007099355    1.0   storageobs
e265    -102.23423383489163    1.0   storageobs
e266    -102.03755784363709    1.0   storageobs
e267    -101.3164584744712    1.0   storageobs
e268    -102.93580652771448    1.0   storageobs
e269    -103.35722615157735    1.0   storageobs
e270    -103.15700522849635    1.0   storageobs
e271    -103.05251378505568    1.0   storageobs
e272    -102.75656338233435    1.0   storageobs
e273    -102.460612979613    1.0   storageobs
e274    -102.35612153617234    1.0   storageobs
e275    -102.31526760013945    1.0   storageobs
e276    -102.1068901021586    1.0   storageobs
e277    -101.89851260417781    1.0   storageobs
e278    -101.690135106197    1.0   storageobs
e279    -101.4817576082162    1.0   storageobs
e280    -101.27338011023541    1.0   storageobs
e281    -101.06500261225459    1.0   storageobs
e282    -100.8566251142738    1.0   storageobs
e283    -100.64824761629298    1.0   storageobs
e284    -100.43987011831216    1.0   storageobs
e285    -100.23149262033137    1.0   storageobs
e286    -100.02311512235056    1.0   storageobs
e287    -99.814737624369755    1.0   storageobs
e288    -99.606360126388935    1.0   storageobs
e289    -99.397982628408144    1.0   storageobs
e290    -99.189605130427339    1.0   storageobs
e291    -99.075184841950943    1.0   storageobs
e292    -98.878192370614556    1.0   storageobs
e293    -99.436342034260491    1.0   storageobs
e294    -99.253121670923363    1.0   storageobs
e295    -99.273685041289923    1.0   storageobs
e296    -99.096113059327195    1.0   storageobs
e297    -98.918541077364438    1.0   storageobs
e298    -98.740969095401709    1.0   storageobs
e299    -98.563397113438938    1.0   storageobs
e300    -98.385825131476224    1.0   storageobs
e301    -98.208253149513496    1.0   storageobs
e302    -98.030681167550753    1.0   storageobs
e303    -97.853109185587982    1.0   storageobs
e304    -97.675537203625254    1.0   storageobs
e305    -97.011812656736154    1.0   storageobs
e306    -96.848356167470854    1.0   storageobs
e307    -96.684899678205568    1.0   storageobs
e308    -96.521443188940253    1.0   storageobs
e309    -96.357986699674967    1.0   storageobs
e310    -98.883925940996576    1.0   storageobs
e311    -98.642933092314337    1.0   storageobs
e312    -99.313626229196927    1.0   storageobs
e313    -99.05205450134234    1.0   storageobs
e314    -98.79048277348771    1.0   storageobs
e315    -98.528911045633095    1.0   storageobs
e316    -98.472499330391358    1.0   storageobs
e317    -98.209053649394548    1.0   storageobs
e318    -97.945607968397738    1.0   storageobs
e319    -98.078215051666589    1.0   storageobs
e320    -97.707804573757002    1.0   storageobs
e321    -97.41660554349717    1.0   storageobs
e322    -97.025567100842892    1.0   storageobs
e323    -96.746617390592377    1.0   storageobs
e324    -96.467667680341862    1.0   storageobs
e325    -96.188717970091361    1.0   storageobs
e326    -95.673025489089625    1.0   storageobs
e327    -95.409914428059182    1.0   storageobs
e328    -99.755404651127037    1.0   storageobs
e329    -99.388507371746726    1.0   storageobs
e330    -99.02161009236643    1.0   storageobs
e331    -98.591350241831165    1.0   storageobs
e332    -98.226962731855238    1.0   storageobs
e333    -97.862575221879283    1.0   storageobs
e334    -97.498187711903398    1.0   storageobs
e335    -97.133800201927457    1.0   storageobs
e336    -96.198390339000838    1.0   storageobs
e337    -95.489658511048745    1.0   storageobs
e338    -95.030061462647453    1.0   storageobs
e339    -94.716666104845785    1.0   storageobs
e340    -94.403270747044132    1.0   storageobs
e341    -94.089875389242437    1.0   storageobs
e342    -93.776480031440784    1.0   storageobs
e343    -93.427114820041382    1.0   storageobs
e344    -93.103404047800922    1.0   storageobs
e345    -92.779693275560447    1.0   storageobs
e346    -92.455982503319973    1.0   storageobs
e347    -92.132271731079513    1.0   storageobs
e348    -92.02737191068907    1.0   storageobs
e349    -91.705192511125603    1.0   storageobs
e350    -91.383013111562107    1.0   storageobs
e351    -91.060833711998626    1.0   storageobs
e352    -90.738654312435159    1.0   storageobs
e353    -90.416474912871692    1.0   storageobs
e354    -90.094295513308225    1.0   storageobs
e355    -89.772116113744744    1.0   storageobs
e356    -89.384733884385099    1.0   storageobs
e357    -89.077405069866231    1.0   storageobs
e358    -88.770076255347348    1.0   storageobs
e359    -88.459860334762794    1.0   storageobs
e360    -88.07190196307603    1.0   storageobs
e361    -87.754046353742979    1.0   storageobs
e362    -87.596688625841068    1.0   storageobs
e363    -87.292863831154648    1.0   storageobs
e364    -86.982426551939767    1.0   storageobs
e365    -86.6719892727249    1.0   storageobs
e366    -86.361551993510005    1.0   storageobs
e367    -88.927557908870583    1.0   storageobs
e368    -88.701510970511052    1.0   storageobs
e369    -88.475464032151507    1.0   storageobs
e370    -88.249417093792005    1.0   storageobs
e371    -88.023370155432517    1.0   storageobs
e372    -87.797323217072986    1.0   storageobs
e373    -87.571276278713455    1.0   storageobs
e374    -89.155013100813534    1.0   storageobs
e375    -88.98084705969498    1.0   storageobs
e376    -88.806681018576413    1.0   storageobs
e377    -88.632514977457831    1.0   storageobs
e378    -88.458348936339263    1.0   storageobs
e379    -89.081815153943722    1.0   storageobs
e380    -88.536499691285854    1.0   storageobs
e381    -88.046081622669874    1.0   storageobs
e382    -87.936474910279884    1.0   storageobs
e383    -87.826868197889866    1.0   storageobs
e384    -87.717261485499861    1.0   storageobs
e385    -87.607654773109871    1.0   storageobs
e386    -87.661573029476486    1.0   storageobs
e387    -87.486556329583848    1.0   storageobs
e388    -87.311539629691197    1.0   storageobs
e389    -87.136522929798545    1.0   storageobs
e390    -86.961506229905908    1.0   storageobs
e391    -86.78648953001327    1.0   storageobs
e392    -86.843982277260849    1.0   storageobs
e393    -86.821593823164463    1.0   storageobs
e394    -86.475291545289878    1.0   storageobs
e395    -86.374317976394551    1.0   storageobs
e396    -86.273344407499266    1.0   storageobs
e397    -86.190964449904399    1.0   storageobs
e398    -85.893709750772629    1.0   storageobs
e399    -85.791671128003813    1.0   storageobs
e400    -86.175275209228815    1.0   storageobs
e401    -86.090882717485982    1.0   storageobs
e402    -86.00649022574315    1.0   storageobs
e403    -85.922097734000303    1.0   storageobs
e404    -87.451376192932742    1.0   storageobs
e405    -87.360598613049049    1.0   storageobs
e406    -86.214682645223519    1.0   storageobs
e407    -85.172210849068023    1.0   storageobs
e408    -85.085363581775098    1.0   storageobs
e409    -84.507550744214015    1.0   storageobs
e410    -83.929737906652903    1.0   storageobs
e411    -85.901073312302302    1.0   storageobs
e412    -86.076002420905596    1.0   storageobs
e413    -85.93854774601671    1.0   storageobs
e414    -85.77711512488419    1.0   storageobs
e415    -85.645427542425466    1.0   storageobs
e416    -85.654303934571985    1.0   storageobs
e417    -86.007481989395274    1.0   storageobs
e418    -86.0430154327167    1.0   storageobs
e419    -86.925543684063371    1.0   storageobs
e420    -86.720310344230882    1.0   storageobs
e421    -86.484452403391586    1.0   storageobs
e422    -86.432917881147461    1.0   storageobs
e423    -86.210750282208465    1.0   storageobs
e424    -85.988582683269499    1.0   storageobs
e425    -85.500112906873056    1.0   storageobs
e426    -85.279966847237091    1.0   storageobs
e427    -85.05982078760114    1.0   storageobs
e428    -84.839674727965203    1.0   storageobs
e429    -84.57488784965723    1.0   storageobs
e430    -84.358128306161191    1.0   storageobs
e431    -84.690129918874618    1.0   storageobs
e432    -84.459300575973955    1.0   storageobs
e433    -84.604059207358233    1.0   storageobs
e434    -84.398139007253704    1.0   storageobs
e435    -84.192218807149189    1.0   storageobs
e436    -84.685152514332628    1.0   storageobs
e437    -84.472708804383771    1.0   storageobs
e438    -84.640183201265572    1.0   storageobs
e439    -83.984443010351242    1.0   storageobs
e440    -84.740772416367022    1.0   storageobs
e441    -84.438948218234657    1.0   storageobs
e442    -84.316002426124342    1.0   storageobs
e443    -83.999582689828657    1.0   storageobs
e444    -83.67942459615368    1.0   storageobs
e445    -83.45457661277203    1.0   storageobs
e446    -83.404983965129986    1.0   storageobs
e447    -83.131123533699608    1.0   storageobs
e448    -82.841776543442876    1.0   storageobs
e449    -82.499974427885874    1.0   storageobs
e450    -82.298663119492204    1.0   storageobs
e451    -81.994413186452846    1.0   storageobs
e452    -81.692561506614894    1.0   storageobs
e453    -81.477365506757238    1.0   storageobs
e454    -81.291377675699209    1.0   storageobs
e455    -81.28651090443276    1.0   storageobs
e456    -80.847489022337157    1.0   storageobs
e457    -80.367815146668804    1.0   storageobs
e458    -80.001448507767449    1.0   storageobs
e459    -79.635081868866067    1.0   storageobs
e460    -79.807139553097457    1.0   storageobs
e461    -79.316931538767378    1.0   storageobs
e462    -78.826723524437313    1.0   storageobs
e463    -79.218263236051513    1.0   storageobs
e464    -79.010007448924682    1.0   storageobs
e465    -78.687060718260241    1.0   storageobs
e466    -78.234625872898022    1.0   storageobs
e467    -78.068992186770743    1.0   storageobs
e468    -77.60082176095905    1.0   storageobs
e469    -77.132651335147358    1.0   storageobs
e470    -76.456746142020506    1.0   storageobs
e471    -76.707932180683059    1.0   storageobs
e472    -76.285082677177854    1.0   storageobs
e473    -75.942545468680549    1.0   storageobs
e474    -75.716269106033749    1.0   storageobs
e475    -75.242371226120355    1.0   storageobs
e476    -74.91791383937273    1.0   storageobs
e477    -74.593456452625105    1.0   storageobs
e478    -74.799017652390049    1.0   storageobs
e479    -74.261274322445786    1.0   storageobs
e480    -73.723530992501523    1.0   storageobs
e481    -73.18578766255726    1.0   storageobs
e482    -72.618654802689932    1.0   storageobs
e483    -71.832848470605626    1.0   storageobs
e484    -71.888022918277201    1.0   storageobs
e485    -71.528585264306912    1.0   storageobs
e486    -71.094003438470708    1.0   storageobs
e487    -69.957261980395472    1.0   storageobs
e488    -69.574989538831232    1.0   storageobs
e489    -68.459309037101164    1.0   storageobs
e490    -68.05376923408383    1.0   storageobs
e491    -66.91377210549436    1.0   storageobs
e492    -66.476616405718374    1.0   storageobs
e493    -66.039460705942389    1.0   storageobs
e494    -65.524717265654218    1.0   storageobs
e495    -65.13644257448675    1.0   storageobs
e496    -65.016880220627925    1.0   storageobs
e497    -64.572718626040768    1.0   storageobs
e498    -64.128557031453596    1.0   storageobs
e499    -64.03665294965451    1.0   storageobs
e500    -63.616685672225501    1.0   storageobs
e501    -63.196718394796463    1.0   storageobs
e502    -63.457242459154173    1.0   storageobs
e503    -63.7977691012549    1.0   storageobs
e504    -63.242659438137537    1.0   storageobs
e505    -62.687549775020209    1.0   storageobs
e506    -62.383441156080075    1.0   storageobs
e507    -61.552862488219162    1.0   storageobs
e508    -59.694629476571663    1.0   storageobs
e509    -59.524479589577673    1.0   storageobs
e510    -58.961330311511915    1.0   storageobs
e511    -57.749731362401839    1.0   storageobs
e512    -57.218730656764478    1.0   storageobs
e513    -56.353856524714338    1.0   storageobs
e514    -56.883226482136735    1.0   storageobs
e515    -55.554894911979218    1.0   storageobs
e516    -55.174130189760866    1.0   storageobs
e517    -54.069646392404586    1.0   storageobs
e518    -53.667293981684736    1.0   storageobs
e519    -54.429039682765584    1.0   storageobs
e520    -53.846412463140254    1.0   storageobs
e521    -53.263785243514931    1.0   storageobs
e522    -52.681158023889594    1.0   storageobs
e523    -53.611773174936005    1.0   storageobs
e524    -53.347593009944021    1.0   storageobs
e525    -53.023505808524533    1.0   storageobs
e526    -51.287984911941038    1.0   storageobs
e527    -52.063733356220915    1.0   storageobs
e528    -50.260275523399173    1.0   storageobs
e529    -49.524835145732624    1.0   storageobs
e530    -48.789394768066082    1.0   storageobs
e531    -48.053954390399525    1.0   storageobs
e532    -47.579369652931739    1.0   storageobs
e533    -46.831255689537926    1.0   storageobs
e534    -48.407637053983009    1.0   storageobs
e535    -46.402673604240164    1.0   storageobs
e536    -42.929911302632462    1.0   storageobs
e537    -46.254198647790666    1.0   storageobs
e538    -45.377514282303956    1.0   storageobs
e539    -45.792212560715548    1.0   storageobs
e540    -45.158252354923889    1.0   storageobs
e541    -42.876574721250883    1.0   storageobs
e542    -41.99611694277332    1.0   storageobs
e543    -41.195056517406279    1.0   storageobs
e544    -40.311503226002159    1.0   storageobs
e545    -39.427949934598033    1.0   storageobs
e546    -40.220264103119824    1.0   storageobs
e547    -39.955000776233376    1.0   storageobs
e548    -39.275216789788722    1.0   storageobs
e549    -38.907792898050062    1.0   storageobs
e550    -38.271880339795956    1.0   storageobs
e551    -39.715962917227145    1.0   storageobs
e552    -39.43507477030353    1.0   storageobs
e553    -39.704267032715933    1.0   storageobs
e554    -39.161347863170491    1.0   storageobs
e555    -38.618428693625056    1.0   storageobs
e556    -38.075509524079607    1.0   storageobs
e557    -37.532590354534165    1.0   storageobs
e558    -36.989671184988723    1.0   storageobs
e559    -36.446752015443288    1.0   storageobs
e560    -34.77873872395562    1.0   storageobs
e561    -34.174412425056268    1.0   storageobs
e562    -33.570086126156902    1.0   storageobs
e563    -32.965759827257543    1.0   storageobs
e564    -32.361433528358184    1.0   storageobs
e565    -31.757107229458821    1.0   storageobs
e566    -29.921983867605309    1.0   storageobs
e567    -31.818030451575936    1.0   storageobs
e568    -32.025246911048001    1.0   storageobs
e569    -37.900149574785623    1.0   storageobs
e570    -39.453708158155052    1.0   storageobs
e571    -37.820301260275379    1.0   storageobs
e572    -36.186894362395705    1.0   storageobs
e573    -34.553487464516039    1.0   storageobs
e574    -32.920080566636372    1.0   storageobs
e575    -31.286673668756702    1.0   storageobs
e576    -30.872993610504452    1.0   storageobs
e577    -29.22443678772694    1.0   storageobs
e578    -27.827526453341147    1.0   storageobs
e579    -26.105524569230795    1.0   storageobs
e580    -24.018142557244516    1.0   storageobs
e581    -22.000557372755587    1.0   storageobs
e582    -19.982972188266658    1.0   storageobs
e583    -17.965387003777728    1.0   storageobs
e584    -26.845410929587899    1.0   storageobs
e585    -26.097781289915151    1.0   storageobs
e586    -25.350151650242399    1.0   storageobs
e587    -24.602522010569654    1.0   storageobs
e588    -24.453589313152065    1.0   storageobs
e589    -24.86347787029522    1.0   storageobs
e590    -23.311766560009982    1.0   storageobs
e591    -24.423311287245642    1.0   storageobs
e592    -25.840515516694399    1.0   storageobs
e593    -25.506110494937406    1.0   storageobs
e594    -25.171705473180424    1.0   storageobs
e595    -25.827324684494329    1.0   storageobs
e596    -25.56803344861855    1.0   storageobs
e597    -25.403807205011617    1.0   storageobs
e598    -24.272670315616843    1.0   storageobs
e599    -24.244369111666579    1.0   storageobs
e600    -27.549649139758071    1.0   storageobs
e601    -26.814020606169379    1.0   storageobs
e602    -26.021642389119155    1.0   storageobs
e603    -26.821432652329673    1.0   storageobs
e604    -25.965656156528826    1.0   storageobs
e605    -25.10987966072798    1.0   storageobs
e606    -22.842644726093585    1.0   storageobs
e607    -22.333978281409749    1.0   storageobs
e608    -21.434065619638851    1.0   storageobs