pcf
* control data
restart  estimation
    2  1410     2     0     2
    1     1 double point   1   0   0
   5.0  2.0   0.3  0.03    20
  3.0   3.0 0.001  0
  0.1
   30  0.01     4     5    0.01     5
    1     1     1
* parameter groups
Ksmacz0      relative 0.01  0.0  switch  2.0 parabolic
alpha        relative 0.01  0.0  switch  2.0 parabolic
* parameter data
ksmacz0     log  factor    7.300000      1.0e-01  1.0e+10  ksmacz0    1.0  0.0  1
alpha       none relative    3.000000      1.01        10.0   alpha      1.0  0.0  1
* observation groups
storageobs  
timeobs   
* observation data
e1    -171.65078256010943    1.0   storageobs
e2    -171.48587520141973    1.0   storageobs
e3    -171.32096784273006    1.0   storageobs
e4    -171.15606048404032    1.0   storageobs
e5    -170.99115312535065    1.0   storageobs
e6    -170.82624576666092    1.0   storageobs
e7    -170.66133840797124    1.0   storageobs
e8    -170.49643104928151    1.0   storageobs
e9    -170.33152369059184    1.0   storageobs
e10    -170.16661633190213    1.0   storageobs
e11    -170.00170897321243    1.0   storageobs
e12    -169.83680161452273    1.0   storageobs
e13    -169.67189425583302    1.0   storageobs
e14    -169.50698689714332    1.0   storageobs
e15    -169.34207953845362    1.0   storageobs
e16    -169.17717217976389    1.0   storageobs
e17    -169.01226482107421    1.0   storageobs
e18    -168.84735746238448    1.0   storageobs
e19    -168.6824501036948    1.0   storageobs
e20    -168.5175427450051    1.0   storageobs
e21    -168.3526353863154    1.0   storageobs
e22    -168.1877280276257    1.0   storageobs
e23    -168.02282066893599    1.0   storageobs
e24    -167.85791331024629    1.0   storageobs
e25    -167.69300595155659    1.0   storageobs
e26    -167.52809859286688    1.0   storageobs
e27    -167.36319123417718    1.0   storageobs
e28    -167.1982838754875    1.0   storageobs
e29    -167.03337651679777    1.0   storageobs
e30    -166.86846915810807    1.0   storageobs
e31    -166.70356179941837    1.0   storageobs
e32    -166.53865444072866    1.0   storageobs
e33    -166.37374708203896    1.0   storageobs
e34    -166.20883972334926    1.0   storageobs
e35    -166.04393236465955    1.0   storageobs
e36    -165.87902500596988    1.0   storageobs
e37    -165.71411764728015    1.0   storageobs
e38    -165.54921028859047    1.0   storageobs
e39    -165.38430292990074    1.0   storageobs
e40    -165.21939557121107    1.0   storageobs
e41    -165.05448821252133    1.0   storageobs
e42    -164.88958085383166    1.0   storageobs
e43    -164.72467349514196    1.0   storageobs
e44    -164.55976613645225    1.0   storageobs
e45    -164.39485877776252    1.0   storageobs
e46    -164.22995141907285    1.0   storageobs
e47    -164.06504406038312    1.0   storageobs
e48    -163.90013670169344    1.0   storageobs
e49    -163.73522934300371    1.0   storageobs
e50    -163.57032198431403    1.0   storageobs
e51    -163.4054146256243    1.0   storageobs
e52    -163.24050726693463    1.0   storageobs
e53    -163.07559990824493    1.0   storageobs
e54    -162.91069254955522    1.0   storageobs
e55    -162.74578519086552    1.0   storageobs
e56    -162.58087783217582    1.0   storageobs
e57    -162.41597047348611    1.0   storageobs
e58    -162.25106311479641    1.0   storageobs
e59    -163.71757016716336    1.0   storageobs
e60    -163.50105130310007    1.0   storageobs
e61    -163.28453243903678    1.0   storageobs
e62    -163.06801357497352    1.0   storageobs
e63    -162.85149471091023    1.0   storageobs
e64    -162.02178306973198    1.0   storageobs
e65    -161.81048459179155    1.0   storageobs
e66    -161.59918611385115    1.0   storageobs
e67    -161.38788763591069    1.0   storageobs
e68    -161.17658915797026    1.0   storageobs
e69    -160.96529068002982    1.0   storageobs
e70    -162.23849224538051    1.0   storageobs
e71    -161.99713586830438    1.0   storageobs
e72    -161.75577949122825    1.0   storageobs
e73    -161.51442311415207    1.0   storageobs
e74    -161.27306673707594    1.0   storageobs
e75    -161.03171035999978    1.0   storageobs
e76    -160.79035398292362    1.0   storageobs
e77    -160.54899760584746    1.0   storageobs
e78    -160.3076412287713    1.0   storageobs
e79    -160.06628485169514    1.0   storageobs
e80    -159.82492847461901    1.0   storageobs
e81    -159.58357209754286    1.0   storageobs
e82    -159.34221572046667    1.0   storageobs
e83    -159.10085934339054    1.0   storageobs
e84    -158.85950296631438    1.0   storageobs
e85    -158.61814658923825    1.0   storageobs
e86    -158.37679021216209    1.0   storageobs
e87    -158.16061830312378    1.0   storageobs
e88    -157.92019469002329    1.0   storageobs
e89    -157.6797710769228    1.0   storageobs
e90    -157.43934746382229    1.0   storageobs
e91    -157.19892385072185    1.0   storageobs
e92    -156.95850023762134    1.0   storageobs
e93    -156.71807662452085    1.0   storageobs
e94    -156.47765301142039    1.0   storageobs
e95    -156.23722939831987    1.0   storageobs
e96    -155.99680578521944    1.0   storageobs
e97    -155.75638217211892    1.0   storageobs
e98    -155.5159585590184    1.0   storageobs
e99    -156.70445187111196    1.0   storageobs
e100    -156.3675947320144    1.0   storageobs
e101    -156.03073759291675    1.0   storageobs
e102    -155.69388045381919    1.0   storageobs
e103    -155.35702331472157    1.0   storageobs
e104    -155.02016617562396    1.0   storageobs
e105    -154.6833090365264    1.0   storageobs
e106    -154.34645189742881    1.0   storageobs
e107    -153.79470450506247    1.0   storageobs
e108    -153.43077347970194    1.0   storageobs
e109    -153.06684245434144    1.0   storageobs
e110    -152.70291142898097    1.0   storageobs
e111    -152.33898040362047    1.0   storageobs
e112    -151.11992824746272    1.0   storageobs
e113    -150.78879918130926    1.0   storageobs
e114    -150.45767011515574    1.0   storageobs
e115    -149.89653715708127    1.0   storageobs
e116    -149.18999170837984    1.0   storageobs
e117    -148.87294247903958    1.0   storageobs
e118    -148.55589324969935    1.0   storageobs
e119    -148.23884402035912    1.0   storageobs
e120    -147.92179479101887    1.0   storageobs
e121    -147.60474556167864    1.0   storageobs
e122    -147.28769633233838    1.0   storageobs
e123    -147.03546540322532    1.0   storageobs
e124    -146.7188008375237    1.0   storageobs
e125    -146.40213627182206    1.0   storageobs
e126    -146.08547170612044    1.0   storageobs
e127    -145.7688071404188    1.0   storageobs
e128    -147.03349590403573    1.0   storageobs
e129    -146.60524669953614    1.0   storageobs
e130    -146.1769974950366    1.0   storageobs
e131    -145.74874829053701    1.0   storageobs
e132    -147.03565034805473    1.0   storageobs
e133    -146.69077866020916    1.0   storageobs
e134    -146.34590697236354    1.0   storageobs
e135    -146.00103528451794    1.0   storageobs
e136    -145.65616359667234    1.0   storageobs
e137    -145.31129190882675    1.0   storageobs
e138    -144.96642022098115    1.0   storageobs
e139    -146.24862347325328    1.0   storageobs
e140    -146.02626158993348    1.0   storageobs
e141    -145.69116716916011    1.0   storageobs
e142    -145.35607274838671    1.0   storageobs
e143    -145.02097832761331    1.0   storageobs
e144    -144.6858839068399    1.0   storageobs
e145    -144.50843563921029    1.0   storageobs
e146    -144.18413468521646    1.0   storageobs
e147    -143.85983373122261    1.0   storageobs
e148    -143.026684079099    1.0   storageobs
e149    -142.72758469748328    1.0   storageobs
e150    -143.52158861391496    1.0   storageobs
e151    -143.31351346174614    1.0   storageobs
e152    -143.10543830957732    1.0   storageobs
e153    -142.89736315740856    1.0   storageobs
e154    -142.68928800523975    1.0   storageobs
e155    -142.48121285307099    1.0   storageobs
e156    -142.27313770090217    1.0   storageobs
e157    -142.06506254873335    1.0   storageobs
e158    -142.30415202551919    1.0   storageobs
e159    -142.04915485819453    1.0   storageobs
e160    -141.6579519505249    1.0   storageobs
e161    -141.39570254468001    1.0   storageobs
e162    -141.13345313883508    1.0   storageobs
e163    -141.00414906865288    1.0   storageobs
e164    -140.74467815584808    1.0   storageobs
e165    -140.48520724304328    1.0   storageobs
e166    -140.22573633023848    1.0   storageobs
e167    -139.96626541743365    1.0   storageobs
e168    -139.22876281579556    1.0   storageobs
e169    -138.98513893722006    1.0   storageobs
e170    -138.74151505864455    1.0   storageobs
e171    -139.2609031679294    1.0   storageobs
e172    -139.03073583427928    1.0   storageobs
e173    -138.80056850062917    1.0   storageobs
e174    -138.57040116697905    1.0   storageobs
e175    -138.34023383332894    1.0   storageobs
e176    -138.11006649967882    1.0   storageobs
e177    -137.87989916602871    1.0   storageobs
e178    -138.18555982187644    1.0   storageobs
e179    -138.00479748674962    1.0   storageobs
e180    -137.82403515162281    1.0   storageobs
e181    -137.64327281649605    1.0   storageobs
e182    -137.46251048136924    1.0   storageobs
e183    -137.18244532236398    1.0   storageobs
e184    -137.01109484704634    1.0   storageobs
e185    -136.83974437172867    1.0   storageobs
e186    -136.668393896411    1.0   storageobs
e187    -136.49704342109334    1.0   storageobs
e188    -136.32569294577567    1.0   storageobs
e189    -136.154342470458    1.0   storageobs
e190    -136.18302382580313    1.0   storageobs
e191    -136.02057858260437    1.0   storageobs
e192    -135.85813333940558    1.0   storageobs
e193    -135.69568809620677    1.0   storageobs
e194    -135.53324285300798    1.0   storageobs
e195    -135.37079760980916    1.0   storageobs
e196    -135.2083523666104    1.0   storageobs
e197    -135.04590712341161    1.0   storageobs
e198    -134.88346188021279    1.0   storageobs
e199    -134.721016637014    1.0   storageobs
e200    -134.55857139381516    1.0   storageobs
e201    -134.39612615061642    1.0   storageobs
e202    -134.23368090741764    1.0   storageobs
e203    -134.07123566421882    1.0   storageobs
e204    -133.90879042102003    1.0   storageobs
e205    -133.74634517782121    1.0   storageobs
e206    -133.58389993462242    1.0   storageobs
e207    -133.42145469142366    1.0   storageobs
e208    -133.01922691232448    1.0   storageobs
e209    -132.85230867929704    1.0   storageobs
e210    -132.68539044626948    1.0   storageobs
e211    -132.51847221324201    1.0   storageobs
e212    -132.35155398021453    1.0   storageobs
e213    -132.18463574718697    1.0   storageobs
e214    -132.01771751415953    1.0   storageobs
e215    -131.85079928113203    1.0   storageobs
e216    -131.68388104810452    1.0   storageobs
e217    -131.51696281507705    1.0   storageobs
e218    -131.56994098067184    1.0   storageobs
e219    -131.7387886333417    1.0   storageobs
e220    -131.58972886736089    1.0   storageobs
e221    -132.25573473650655    1.0   storageobs
e222    -135.33129298897185    1.0   storageobs
e223    -134.98670775764143    1.0   storageobs
e224    -134.642122526311    1.0   storageobs
e225    -134.95558378650242    1.0   storageobs
e226    -134.61258892127259    1.0   storageobs
e227    -134.79200001432167    1.0   storageobs
e228    -134.56632523352675    1.0   storageobs
e229    -134.34065045273178    1.0   storageobs
e230    -134.1149756719368    1.0   storageobs
e231    -134.96656771509095    1.0   storageobs
e232    -134.59878372364912    1.0   storageobs
e233    -134.42131738320148    1.0   storageobs
e234    -134.02447818033806    1.0   storageobs
e235    -133.62763897747462    1.0   storageobs
e236    -133.23079977461117    1.0   storageobs
e237    -132.83396057174778    1.0   storageobs
e238    -132.43712136888433    1.0   storageobs
e239    -132.04028216602092    1.0   storageobs
e240    -131.64344296315747    1.0   storageobs
e241    -132.13901111588686    1.0   storageobs
e242    -131.90890175671831    1.0   storageobs
e243    -131.67879239754967    1.0   storageobs
e244    -131.67494419029589    1.0   storageobs
e245    -131.43312274409641    1.0   storageobs
e246    -131.1913012978969    1.0   storageobs
e247    -130.94947985169742    1.0   storageobs
e248    -130.70765840549791    1.0   storageobs
e249    -130.4658369592984    1.0   storageobs
e250    -130.22401551309892    1.0   storageobs
e251    -131.57151735340352    1.0   storageobs
e252    -131.33704682067864    1.0   storageobs
e253    -131.10257628795375    1.0   storageobs
e254    -130.86810575522878    1.0   storageobs
e255    -130.63363522250393    1.0   storageobs
e256    -130.39916468977896    1.0   storageobs
e257    -130.16469415705407    1.0   storageobs
e258    -129.93022362432916    1.0   storageobs
e259    -129.69575309160422    1.0   storageobs
e260    -129.46128255887933    1.0   storageobs
e261    -129.22681202615442    1.0   storageobs
e262    -128.99234149342951    1.0   storageobs
e263    -128.75787096070459    1.0   storageobs
e264    -128.52340042797968    1.0   storageobs
e265    -128.49883687664226    1.0   storageobs
e266    -128.2781965421155    1.0   storageobs
e267    -127.52284550660231    1.0   storageobs
e268    -129.23420918426464    1.0   storageobs
e269    -129.3984665486598    1.0   storageobs
e270    -129.17292177545727    1.0   storageobs
e271    -129.04029272077048    1.0   storageobs
e272    -128.72183222905221    1.0   storageobs
e273    -128.40337173733394    1.0   storageobs
e274    -128.27074268264715    1.0   storageobs
e275    -128.12552076318974    1.0   storageobs
e276    -127.8882017222129    1.0   storageobs
e277    -127.65088268123607    1.0   storageobs
e278    -127.41356364025921    1.0   storageobs
e279    -127.17624459928236    1.0   storageobs
e280    -126.93892555830553    1.0   storageobs
e281    -126.70160651732866    1.0   storageobs
e282    -126.46428747635183    1.0   storageobs
e283    -126.22696843537496    1.0   storageobs
e284    -125.98964939439813    1.0   storageobs
e285    -125.75233035342127    1.0   storageobs
e286    -125.51501131244446    1.0   storageobs
e287    -125.27769227146759    1.0   storageobs
e288    -125.04037323049074    1.0   storageobs
e289    -124.80305418951392    1.0   storageobs
e290    -124.56573514853707    1.0   storageobs
e291    -124.44068836379719    1.0   storageobs
e292    -124.21107602866448    1.0   storageobs
e293    -124.76057916001018    1.0   storageobs
e294    -124.54511957276191    1.0   storageobs
e295    -124.64555940552576    1.0   storageobs
e296    -124.43538890803035    1.0   storageobs
e297    -124.22521841053492    1.0   storageobs
e298    -124.01504791303954    1.0   storageobs
e299    -123.8048774155441    1.0   storageobs
e300    -123.59470691804869    1.0   storageobs
e301    -123.38453642055327    1.0   storageobs
e302    -123.17436592305785    1.0   storageobs
e303    -122.96419542556245    1.0   storageobs
e304    -122.75402492806703    1.0   storageobs
e305    -122.45395527839443    1.0   storageobs
e306    -122.24947497876259    1.0   storageobs
e307    -122.04499467913077    1.0   storageobs
e308    -121.84051437949893    1.0   storageobs
e309    -121.63603407986709    1.0   storageobs
e310    -124.05415429575605    1.0   storageobs
e311    -123.77624001774393    1.0   storageobs
e312    -124.42270671783535    1.0   storageobs
e313    -124.12509414910582    1.0   storageobs
e314    -123.8274815803763    1.0   storageobs
e315    -123.52986901164674    1.0   storageobs
e316    -123.62140660427859    1.0   storageobs
e317    -123.31664686877546    1.0   storageobs
e318    -123.01188713327231    1.0   storageobs
e319    -123.13589945583941    1.0   storageobs
e320    -122.72087995145756    1.0   storageobs
e321    -122.38790236984396    1.0   storageobs
e322    -122.44561014680504    1.0   storageobs
e323    -122.11099298605018    1.0   storageobs
e324    -121.77637582529532    1.0   storageobs
e325    -121.44175866454043    1.0   storageobs
e326    -121.53264416785706    1.0   storageobs
e327    -121.19454395193129    1.0   storageobs
e328    -125.45424181065646    1.0   storageobs
e329    -125.01394656401639    1.0   storageobs
e330    -124.57365131737633    1.0   storageobs
e331    -124.08125849836212    1.0   storageobs
e332    -123.64458429167749    1.0   storageobs
e333    -123.20791008499285    1.0   storageobs
e334    -122.77123587830816    1.0   storageobs
e335    -122.33456167162352    1.0   storageobs
e336    -121.86554396390541    1.0   storageobs
e337    -121.39022137612207    1.0   storageobs
e338    -120.77278803808935    1.0   storageobs
e339    -120.36911838743657    1.0   storageobs
e340    -119.9654487367838    1.0   storageobs
e341    -119.56177908613103    1.0   storageobs
e342    -119.15810943547828    1.0   storageobs
e343    -118.76671238259243    1.0   storageobs
e344    -118.34948256832628    1.0   storageobs
e345    -117.93225275406016    1.0   storageobs
e346    -117.51502293979402    1.0   storageobs
e347    -117.0977931255279    1.0   storageobs
e348    -116.76738095912363    1.0   storageobs
e349    -116.35501568303592    1.0   storageobs
e350    -115.94265040694826    1.0   storageobs
e351    -115.53028513086059    1.0   storageobs
e352    -115.11791985477294    1.0   storageobs
e353    -114.70555457868529    1.0   storageobs
e354    -114.29318930259764    1.0   storageobs
e355    -113.88082402650997    1.0   storageobs
e356    -113.22273116498327    1.0   storageobs
e357    -112.82754353556238    1.0   storageobs
e358    -112.43235590614152    1.0   storageobs
e359    -112.07163429938809    1.0   storageobs
e360    -111.67044067595907    1.0   storageobs
e361    -111.26331956737033    1.0   storageobs
e362    -110.9499861476822    1.0   storageobs
e363    -110.51455368337955    1.0   storageobs
e364    -110.10822370380161    1.0   storageobs
e365    -109.70189372422359    1.0   storageobs
e366    -109.29556374464566    1.0   storageobs
e367    -111.6334076617578    1.0   storageobs
e368    -111.30387466777302    1.0   storageobs
e369    -110.97434167378827    1.0   storageobs
e370    -110.64480867980348    1.0   storageobs
e371    -110.3152756858187    1.0   storageobs
e372    -109.98574269183396    1.0   storageobs
e373    -109.65620969784921    1.0   storageobs
e374    -111.0894018913842    1.0   storageobs
e375    -110.79609283079373    1.0   storageobs
e376    -110.50278377020325    1.0   storageobs
e377    -110.20947470961273    1.0   storageobs
e378    -109.91616564902228    1.0   storageobs
e379    -110.27244494379629    1.0   storageobs
e380    -109.20832532660566    1.0   storageobs
e381    -108.47771801380681    1.0   storageobs
e382    -108.22259256169168    1.0   storageobs
e383    -107.96746710957655    1.0   storageobs
e384    -107.71234165746142    1.0   storageobs
e385    -107.45721620534628    1.0   storageobs
e386    -107.39877520458766    1.0   storageobs
e387    -107.06497597192997    1.0   storageobs
e388    -106.7311767392722    1.0   storageobs
e389    -106.39737750661449    1.0   storageobs
e390    -106.06357827395676    1.0   storageobs
e391    -105.72977904129904    1.0   storageobs
e392    -105.59589877316517    1.0   storageobs
e393    -105.2418248252096    1.0   storageobs
e394    -105.00906285156798    1.0   storageobs
e395    -104.77641690540771    1.0   storageobs
e396    -104.54377095924748    1.0   storageobs
e397    -104.59952492440392    1.0   storageobs
e398    -104.78585410560834    1.0   storageobs
e399    -104.57590650538786    1.0   storageobs
e400    -104.66281531781998    1.0   storageobs
e401    -104.463751401857    1.0   storageobs
e402    -104.26468748589406    1.0   storageobs
e403    -104.06562356993109    1.0   storageobs
e404    -105.45692658257076    1.0   storageobs
e405    -105.25578976588145    1.0   storageobs
e406    -104.01284413140807    1.0   storageobs
e407    -102.97565614280836    1.0   storageobs
e408    -102.77632685838472    1.0   storageobs
e409    -102.08824897937328    1.0   storageobs
e410    -101.40017110036186    1.0   storageobs
e411    -103.16964059574737    1.0   storageobs
e412    -103.81195372998916    1.0   storageobs
e413    -103.54961640093698    1.0   storageobs
e414    -103.0191035800422    1.0   storageobs
e415    -102.77486420341985    1.0   storageobs
e416    -102.87236075241354    1.0   storageobs
e417    -103.05495860082716    1.0   storageobs
e418    -103.05261540398038    1.0   storageobs
e419    -103.65131778433016    1.0   storageobs
e420    -103.34828721177844    1.0   storageobs
e421    -103.33622047671084    1.0   storageobs
e422    -103.15913116117538    1.0   storageobs
e423    -102.84713137320681    1.0   storageobs
e424    -102.53513158523822    1.0   storageobs
e425    -101.66498593967538    1.0   storageobs
e426    -101.35971731330149    1.0   storageobs
e427    -101.05444868692761    1.0   storageobs
e428    -100.7491800605537    1.0   storageobs
e429    -100.22768724081547    1.0   storageobs
e430    -99.929169162587101    1.0   storageobs
e431    -99.997105695946686    1.0   storageobs
e432    -99.687606492053902    1.0   storageobs
e433    -99.675316697745217    1.0   storageobs
e434    -99.385002324439284    1.0   storageobs
e435    -99.094687951133338    1.0   storageobs
e436    -99.405210957580422    1.0   storageobs
e437    -99.043038729121875    1.0   storageobs
e438    -99.022163303371343    1.0   storageobs
e439    -98.276025510286146    1.0   storageobs
e440    -98.756386978251939    1.0   storageobs
e441    -98.376845280896475    1.0   storageobs
e442    -98.175391551710675    1.0   storageobs
e443    -97.780296189092297    1.0   storageobs
e444    -97.420409664701765    1.0   storageobs
e445    -97.100198459856855    1.0   storageobs
e446    -96.953503473035809    1.0   storageobs
e447    -96.604810110926678    1.0   storageobs
e448    -96.23862944546606    1.0   storageobs
e449    -95.659714362946175    1.0   storageobs
e450    -95.362094898668914    1.0   storageobs
e451    -94.983142505688505    1.0   storageobs
e452    -94.499773723497086    1.0   storageobs
e453    -94.124721711092306    1.0   storageobs
e454    -93.819409864521631    1.0   storageobs
e455    -93.716351519059373    1.0   storageobs
e456    -93.198674993752007    1.0   storageobs
e457    -92.685048459055508    1.0   storageobs
e458    -92.234989079860284    1.0   storageobs
e459    -91.784929700665074    1.0   storageobs
e460    -91.701614383117416    1.0   storageobs
e461    -91.113295968315555    1.0   storageobs
e462    -90.524977553513708    1.0   storageobs
e463    -90.710534730133105    1.0   storageobs
e464    -90.182517623308925    1.0   storageobs
e465    -89.732394067247199    1.0   storageobs
e466    -89.184945240695171    1.0   storageobs
e467    -88.91684413894221    1.0   storageobs
e468    -88.355128076477541    1.0   storageobs
e469    -87.793412014012873    1.0   storageobs
e470    -86.927389676379306    1.0   storageobs
e471    -87.116122738170176    1.0   storageobs
e472    -86.436439611773594    1.0   storageobs
e473    -86.006426026575411    1.0   storageobs
e474    -85.656158760703505    1.0   storageobs
e475    -84.865837817095368    1.0   storageobs
e476    -84.444809493728286    1.0   storageobs
e477    -84.023781170361147    1.0   storageobs
e478    -84.146273086054023    1.0   storageobs
e479    -83.50739549345036    1.0   storageobs
e480    -82.868517900846697    1.0   storageobs
e481    -82.229640308243034    1.0   storageobs
e482    -81.618842462256069    1.0   storageobs
e483    -80.81792370940299    1.0   storageobs
e484    -81.151399456308809    1.0   storageobs
e485    -80.700703242242071    1.0   storageobs
e486    -80.192204568368979    1.0   storageobs
e487    -79.440134398768649    1.0   storageobs
e488    -78.981261500010888    1.0   storageobs
e489    -77.999488497083846    1.0   storageobs
e490    -77.523131231656606    1.0   storageobs
e491    -76.864638841631006    1.0   storageobs
e492    -76.371625883540801    1.0   storageobs
e493    -75.878612925450554    1.0   storageobs
e494    -75.319846915220396    1.0   storageobs
e495    -75.016402787437045    1.0   storageobs
e496    -74.778261901952575    1.0   storageobs
e497    -74.269672116522969    1.0   storageobs
e498    -73.761082331093391    1.0   storageobs
e499    -73.670681038070583    1.0   storageobs
e500    -73.186267752304403    1.0   storageobs
e501    -72.701854466538251    1.0   storageobs
e502    -72.866944998675564    1.0   storageobs
e503    -73.125140150375287    1.0   storageobs
e504    -72.505584478920795    1.0   storageobs
e505    -71.886028807466317    1.0   storageobs
e506    -71.517021209213993    1.0   storageobs
e507    -70.626292933571733    1.0   storageobs
e508    -68.869334356534793    1.0   storageobs
e509    -68.681917450239467    1.0   storageobs
e510    -68.054817340020264    1.0   storageobs
e511    -66.868342231668336    1.0   storageobs
e512    -66.271762303804806    1.0   storageobs
e513    -65.167226854504207    1.0   storageobs
e514    -65.513681820899151    1.0   storageobs
e515    -64.609162876348847    1.0   storageobs
e516    -64.162388344784375    1.0   storageobs
e517    -63.08929200212566    1.0   storageobs
e518    -62.621718030278004    1.0   storageobs
e519    -63.865047527413871    1.0   storageobs
e520    -63.230464850780699    1.0   storageobs
e521    -62.595882174147533    1.0   storageobs
e522    -61.961299497514361    1.0   storageobs
e523    -62.811356113727662    1.0   storageobs
e524    -62.362765568872796    1.0   storageobs
e525    -61.825305983789562    1.0   storageobs
e526    -60.040050192412409    1.0   storageobs
e527    -60.819468631375436    1.0   storageobs
e528    -59.066132878321781    1.0   storageobs
e529    -58.273817371682341    1.0   storageobs
e530    -57.481501865042901    1.0   storageobs
e531    -56.689186358403468    1.0   storageobs
e532    -56.109359169560967    1.0   storageobs
e533    -55.310689535969026    1.0   storageobs
e534    -56.816563909816864    1.0   storageobs
e535    -54.566403294267126    1.0   storageobs
e536    -51.045349673496922    1.0   storageobs
e537    -54.335915992358586    1.0   storageobs
e538    -53.400648678007599    1.0   storageobs
e539    -53.758724289038241    1.0   storageobs
e540    -53.045119634097205    1.0   storageobs
e541    -50.86380998938148    1.0   storageobs
e542    -49.926692958649234    1.0   storageobs
e543    -49.042059863648177    1.0   storageobs
e544    -48.096181394763903    1.0   storageobs
e545    -47.150302925879622    1.0   storageobs
e546    -47.978177939679171    1.0   storageobs
e547    -47.475318680813302    1.0   storageobs
e548    -46.74023470883197    1.0   storageobs
e549    -46.277825629975283    1.0   storageobs
e550    -45.580468643347089    1.0   storageobs
e551    -46.892975438562182    1.0   storageobs
e552    -46.569361690435755    1.0   storageobs
e553    -46.824688297688326    1.0   storageobs
e554    -46.213287946497744    1.0   storageobs
e555    -45.601887595307147    1.0   storageobs
e556    -44.990487244116579    1.0   storageobs
e557    -44.37908689292599    1.0   storageobs
e558    -43.767686541735415    1.0   storageobs
e559    -43.156286190544826    1.0   storageobs
e560    -41.507668537662461    1.0   storageobs
e561    -40.837470644478891    1.0   storageobs
e562    -40.167272751295336    1.0   storageobs
e563    -39.497074858111773    1.0   storageobs
e564    -38.826876964928204    1.0   storageobs
e565    -38.156679071744634    1.0   storageobs
e566    -36.392785502094071    1.0   storageobs
e567    -38.293162937772109    1.0   storageobs
e568    -38.245332722879652    1.0   storageobs
e569    -44.000506032279276    1.0   storageobs
e570    -45.487564788543629    1.0   storageobs
e571    -43.809546544527436    1.0   storageobs
e572    -42.131528300511242    1.0   storageobs
e573    -40.453510056495034    1.0   storageobs
e574    -38.775491812478826    1.0   storageobs
e575    -37.097473568462632    1.0   storageobs
e576    -36.597295039256885    1.0   storageobs
e577    -34.911562094698944    1.0   storageobs
e578    -33.484212953793914    1.0   storageobs
e579    -31.729606033800941    1.0   storageobs
e580    -29.661402609120664    1.0   storageobs
e581    -27.619846186082942    1.0   storageobs
e582    -25.578289763045227    1.0   storageobs
e583    -23.536733340007501    1.0   storageobs
e584    -32.314005870390623    1.0   storageobs
e585    -31.534414579319485    1.0   storageobs
e586    -30.754823288248343    1.0   storageobs
e587    -29.975231997177204    1.0   storageobs
e588    -29.812517766588712    1.0   storageobs
e589    -30.161717639707177    1.0   storageobs
e590    -28.573568075395862    1.0   storageobs
e591    -29.576298912778498    1.0   storageobs
e592    -30.904543159546893    1.0   storageobs
e593    -30.509407714413118    1.0   storageobs
e594    -30.11427226927934    1.0   storageobs
e595    -30.745416945291172    1.0   storageobs
e596    -30.438183232317812    1.0   storageobs
e597    -30.121402480672753    1.0   storageobs
e598    -28.954229765725827    1.0   storageobs
e599    -28.920660472754328    1.0   storageobs
e600    -32.010973872699616    1.0   storageobs
e601    -31.136321851428335    1.0   storageobs
e602    -30.279955475879557    1.0   storageobs
e603    -30.667631691817519    1.0   storageobs
e604    -29.735069405818415    1.0   storageobs
e605    -28.802507119819307    1.0   storageobs
e606    -26.828102184802418    1.0   storageobs
e607    -26.255509771367898    1.0   storageobs
e608    -25.328771654175512    1.0   storageobs
e609    -25.710334611835457    1.0   storageobs
e610    -24.855345321655584    1.0   storageobs
e611    -25.250015610182931    1.0   storageobs
e612    -27.19241404694683    1.0   storageobs
e613    -26.732812169869042    1.0   storageobs
e614    -26.273210292791269    1.0   storageobs
e615    -25.813608415713496    1.0   storageobs
e616    -25.354006538635723    1.0   storageobs