pcf
* control data
restart  estimation
    6  1693     6     0     2
    1     1 double point   1   0   0
   5.0  2.0   0.3  0.03    10
  3.0   3.0 0.001  0
  0.1
   30  0.01     4     3  0.01     3
    1     1     1
* parameter groups
sd           relative 0.01  0.0  switch  2.0 parabolic
theta_s      relative 0.01  0.0  switch  2.0 parabolic
b            relative 0.01  0.0  switch  2.0 parabolic
psi_s        relative 0.01  0.0  switch  2.0 parabolic
Ksmacz0      relative 0.01  0.0  switch  2.0 parabolic
alpha        relative 0.01  0.0  switch  2.0 parabolic
* parameter data
sd          none relative   NaN  0.0      2.0        sd         1.0  0.0  1
theta_s     none relative   NaN  0.01     1          theta_s    1.0  0.0  1
b           none relative   NaN  0.01     20.0       b          1.0  0.0  1
psi_s       none relative   NaN  -1.0     -0.01      psi_s      1.0  0.0  1
Ksmacz0     log  factor     NaN  1.0e-04  1.0e+5  Ksmacz0    1.0  0.0  1
alpha       none relative   NaN  1        20.0       alpha      1.0  0.0  1
* observation groups
storageobs
timeobs
* observation data
e1    -249.94927004155701    1.0   storageobs
e2    -249.84660110292867    1.0   storageobs
e3    -249.74393216430036    1.0   storageobs
e4    -249.64126322567205    1.0   storageobs
e5    -249.53859428704374    1.0   storageobs
e6    -249.43592534841542    1.0   storageobs
e7    -249.33325640978711    1.0   storageobs
e8    -249.2305874711588    1.0   storageobs
e9    -249.12791853253046    1.0   storageobs
e10    -249.02524959390217    1.0   storageobs
e11    -248.92258065527383    1.0   storageobs
e12    -248.81991171664552    1.0   storageobs
e13    -248.71724277801718    1.0   storageobs
e14    -248.61457383938887    1.0   storageobs
e15    -248.51190490076056    1.0   storageobs
e16    -248.40923596213224    1.0   storageobs
e17    -248.30656702350393    1.0   storageobs
e18    -248.20389808487562    1.0   storageobs
e19    -248.10122914624728    1.0   storageobs
e20    -247.99856020761897    1.0   storageobs
e21    -247.89589126899065    1.0   storageobs
e22    -247.79322233036234    1.0   storageobs
e23    -247.690553391734    1.0   storageobs
e24    -246.72452624810191    1.0   storageobs
e25    -246.6350189606917    1.0   storageobs
e26    -246.54551167328154    1.0   storageobs
e27    -246.45600438587135    1.0   storageobs
e28    -246.3664970984612    1.0   storageobs
e29    -246.27698981105104    1.0   storageobs
e30    -246.18748252364085    1.0   storageobs
e31    -246.09797523623067    1.0   storageobs
e32    -246.00846794882048    1.0   storageobs
e33    -245.91896066141032    1.0   storageobs
e34    -245.82945337400011    1.0   storageobs
e35    -245.73994608658995    1.0   storageobs
e36    -245.6504387991798    1.0   storageobs
e37    -245.56093151176958    1.0   storageobs
e38    -245.47142422435942    1.0   storageobs
e39    -245.38191693694924    1.0   storageobs
e40    -245.29240964953905    1.0   storageobs
e41    -245.20290236212887    1.0   storageobs
e42    -245.11339507471871    1.0   storageobs
e43    -245.02388778730855    1.0   storageobs
e44    -244.93438049989834    1.0   storageobs
e45    -244.84487321248818    1.0   storageobs
e46    -244.75536592507797    1.0   storageobs
e47    -244.66585863766781    1.0   storageobs
e48    -244.57635135025762    1.0   storageobs
e49    -244.48684406284747    1.0   storageobs
e50    -244.39733677543731    1.0   storageobs
e51    -244.30782948802712    1.0   storageobs
e52    -244.21832220061694    1.0   storageobs
e53    -244.12881491320675    1.0   storageobs
e54    -244.0393076257966    1.0   storageobs
e55    -243.50955356695636    1.0   storageobs
e56    -243.4119463479424    1.0   storageobs
e57    -243.31433912892848    1.0   storageobs
e58    -243.21673190991453    1.0   storageobs
e59    -243.11912469090061    1.0   storageobs
e60    -243.02151747188668    1.0   storageobs
e61    -242.92391025287276    1.0   storageobs
e62    -242.82630303385884    1.0   storageobs
e63    -242.72869581484488    1.0   storageobs
e64    -242.63108859583096    1.0   storageobs
e65    -242.53348137681701    1.0   storageobs
e66    -242.43587415780308    1.0   storageobs
e67    -242.33826693878916    1.0   storageobs
e68    -242.24065971977524    1.0   storageobs
e69    -242.14305250076131    1.0   storageobs
e70    -242.04544528174736    1.0   storageobs
e71    -241.94783806273341    1.0   storageobs
e72    -241.85023084371952    1.0   storageobs
e73    -241.75262362470556    1.0   storageobs
e74    -241.65501640569164    1.0   storageobs
e75    -241.55740918667772    1.0   storageobs
e76    -241.45980196766379    1.0   storageobs
e77    -241.36219474864987    1.0   storageobs
e78    -241.26458752963592    1.0   storageobs
e79    -241.16698031062197    1.0   storageobs
e80    -241.06937309160804    1.0   storageobs
e81    -240.97176587259412    1.0   storageobs
e82    -240.8741586535802    1.0   storageobs
e83    -240.77655143456627    1.0   storageobs
e84    -240.67894421555232    1.0   storageobs
e85    -240.5813369965384    1.0   storageobs
e86    -240.48372977752445    1.0   storageobs
e87    -240.38612255851052    1.0   storageobs
e88    -240.2885153394966    1.0   storageobs
e89    -240.19090812048267    1.0   storageobs
e90    -240.09330090146875    1.0   storageobs
e91    -239.9956936824548    1.0   storageobs
e92    -239.89808646344085    1.0   storageobs
e93    -239.80047924442695    1.0   storageobs
e94    -239.702872025413    1.0   storageobs
e95    -239.60526480639908    1.0   storageobs
e96    -239.50765758738515    1.0   storageobs
e97    -239.41005036837123    1.0   storageobs
e98    -239.31244314935731    1.0   storageobs
e99    -239.21483593034336    1.0   storageobs
e100    -239.1172287113294    1.0   storageobs
e101    -239.01962149231548    1.0   storageobs
e102    -238.92201427330156    1.0   storageobs
e103    -238.82440705428763    1.0   storageobs
e104    -238.72679983527371    1.0   storageobs
e105    -238.62919261625979    1.0   storageobs
e106    -238.53158539724583    1.0   storageobs
e107    -238.43397817823188    1.0   storageobs
e108    -238.33637095921796    1.0   storageobs
e109    -238.23876374020404    1.0   storageobs
e110    -238.14115652119011    1.0   storageobs
e111    -238.04354930217619    1.0   storageobs
e112    -237.94594208316224    1.0   storageobs
e113    -237.84833486414831    1.0   storageobs
e114    -237.75072764513439    1.0   storageobs
e115    -237.65312042612044    1.0   storageobs
e116    -237.5277363456573    1.0   storageobs
e117    -237.40421063885583    1.0   storageobs
e118    -237.28068493205436    1.0   storageobs
e119    -237.15715922525291    1.0   storageobs
e120    -241.39075940086104    1.0   storageobs
e121    -241.13211267200882    1.0   storageobs
e122    -240.87346594315659    1.0   storageobs
e123    -240.61481921430436    1.0   storageobs
e124    -240.35617248545213    1.0   storageobs
e125    -240.09752575659991    1.0   storageobs
e126    -239.83887902774768    1.0   storageobs
e127    -239.58023229889542    1.0   storageobs
e128    -239.32158557004323    1.0   storageobs
e129    -239.062938841191    1.0   storageobs
e130    -238.80429211233874    1.0   storageobs
e131    -238.54564538348652    1.0   storageobs
e132    -238.28699865463429    1.0   storageobs
e133    -238.02835192578206    1.0   storageobs
e134    -237.76970519692978    1.0   storageobs
e135    -237.51105846807755    1.0   storageobs
e136    -237.25241173922532    1.0   storageobs
e137    -236.9937650103731    1.0   storageobs
e138    -236.73511828152087    1.0   storageobs
e139    -236.47647155266864    1.0   storageobs
e140    -236.21782482381641    1.0   storageobs
e141    -235.95917809496416    1.0   storageobs
e142    -235.70053136611196    1.0   storageobs
e143    -235.4418846372597    1.0   storageobs
e144    -235.18323790840748    1.0   storageobs
e145    -234.92459117955525    1.0   storageobs
e146    -234.66594445070302    1.0   storageobs
e147    -234.4072977218508    1.0   storageobs
e148    -234.14865099299854    1.0   storageobs
e149    -233.89000426414631    1.0   storageobs
e150    -233.63135753529409    1.0   storageobs
e151    -233.37271080644186    1.0   storageobs
e152    -233.11406407758963    1.0   storageobs
e153    -232.8554173487374    1.0   storageobs
e154    -232.59677061988518    1.0   storageobs
e155    -232.33812389103295    1.0   storageobs
e156    -232.07947716218072    1.0   storageobs
e157    -231.8208304333285    1.0   storageobs
e158    -231.56218370447621    1.0   storageobs
e159    -231.30353697562398    1.0   storageobs
e160    -231.04489024677176    1.0   storageobs
e161    -230.78624351791953    1.0   storageobs
e162    -230.52759678906727    1.0   storageobs
e163    -230.26895006021505    1.0   storageobs
e164    -230.01030333136285    1.0   storageobs
e165    -229.75165660251059    1.0   storageobs
e166    -232.31694179107106    1.0   storageobs
e167    -231.97322171838422    1.0   storageobs
e168    -231.62950164569739    1.0   storageobs
e169    -231.28578157301055    1.0   storageobs
e170    -230.94206150032375    1.0   storageobs
e171    -230.59834142763691    1.0   storageobs
e172    -230.25462135495007    1.0   storageobs
e173    -229.91090128226324    1.0   storageobs
e174    -229.5671812095764    1.0   storageobs
e175    -229.22346113688957    1.0   storageobs
e176    -228.87974106420273    1.0   storageobs
e177    -228.5360209915159    1.0   storageobs
e178    -228.19230091882909    1.0   storageobs
e179    -227.84858084614226    1.0   storageobs
e180    -227.50486077345545    1.0   storageobs
e181    -227.16114070076858    1.0   storageobs
e182    -226.81742062808175    1.0   storageobs
e183    -226.47370055539494    1.0   storageobs
e184    -226.12998048270811    1.0   storageobs
e185    -225.78626041002127    1.0   storageobs
e186    -225.44254033733444    1.0   storageobs
e187    -225.0988202646476    1.0   storageobs
e188    -224.75510019196076    1.0   storageobs
e189    -224.41138011927393    1.0   storageobs
e190    -224.06766004658715    1.0   storageobs
e191    -223.72393997390031    1.0   storageobs
e192    -223.38021990121348    1.0   storageobs
e193    -223.03649982852664    1.0   storageobs
e194    -222.69277975583981    1.0   storageobs
e195    -222.34905968315297    1.0   storageobs
e196    -222.00533961046614    1.0   storageobs
e197    -221.6616195377793    1.0   storageobs
e198    -221.31789946509247    1.0   storageobs
e199    -220.97417939240566    1.0   storageobs
e200    -220.63045931971882    1.0   storageobs
e201    -220.28673924703199    1.0   storageobs
e202    -219.94301917434515    1.0   storageobs
e203    -219.59929910165832    1.0   storageobs
e204    -219.25557902897151    1.0   storageobs
e205    -218.91185895628468    1.0   storageobs
e206    -218.56813888359784    1.0   storageobs
e207    -218.224418810911    1.0   storageobs
e208    -217.88069873822417    1.0   storageobs
e209    -217.53697866553733    1.0   storageobs
e210    -217.1932585928505    1.0   storageobs
e211    -216.84953852016366    1.0   storageobs
e212    -216.50581844747683    1.0   storageobs
e213    -216.16209837479002    1.0   storageobs
e214    -215.81837830210318    1.0   storageobs
e215    -215.47465822941635    1.0   storageobs
e216    -215.13093815672951    1.0   storageobs
e217    -214.78721808404268    1.0   storageobs
e218    -214.44349801135587    1.0   storageobs
e219    -216.9272482961137    1.0   storageobs
e220    -216.62513721624001    1.0   storageobs
e221    -213.45306639302405    1.0   storageobs
e222    -213.06591499974047    1.0   storageobs
e223    -212.67876360645687    1.0   storageobs
e224    -212.29161221317329    1.0   storageobs
e225    -211.90446081988972    1.0   storageobs
e226    -211.51730942660615    1.0   storageobs
e227    -211.13015803332257    1.0   storageobs
e228    -210.743006640039    1.0   storageobs
e229    -210.35585524675543    1.0   storageobs
e230    -209.96870385347182    1.0   storageobs
e231    -209.58155246018828    1.0   storageobs
e232    -209.19440106690467    1.0   storageobs
e233    -213.41803151107376    1.0   storageobs
e234    -213.27470271192678    1.0   storageobs
e235    -213.13137391277982    1.0   storageobs
e236    -212.98804511363284    1.0   storageobs
e237    -212.84471631448588    1.0   storageobs
e238    -212.70138751533892    1.0   storageobs
e239    -212.55805871619194    1.0   storageobs
e240    -212.41472991704495    1.0   storageobs
e241    -212.27140111789799    1.0   storageobs
e242    -212.12807231875104    1.0   storageobs
e243    -211.98474351960405    1.0   storageobs
e244    -211.84141472045707    1.0   storageobs
e245    -211.69808592131011    1.0   storageobs
e246    -211.55475712216315    1.0   storageobs
e247    -211.41142832301617    1.0   storageobs
e248    -211.26809952386918    1.0   storageobs
e249    -211.12477072472223    1.0   storageobs
e250    -213.46374388371615    1.0   storageobs
e251    -213.25678035078454    1.0   storageobs
e252    -213.04981681785293    1.0   storageobs
e253    -212.84285328492126    1.0   storageobs
e254    -212.63588975198959    1.0   storageobs
e255    -212.42892621905796    1.0   storageobs
e256    -212.22196268612632    1.0   storageobs
e257    -212.01499915319468    1.0   storageobs
e258    -211.80803562026304    1.0   storageobs
e259    -211.60107208733143    1.0   storageobs
e260    -211.39410855439982    1.0   storageobs
e261    -211.18714502146815    1.0   storageobs
e262    -210.98018148853649    1.0   storageobs
e263    -210.77321795560488    1.0   storageobs
e264    -210.56625442267327    1.0   storageobs
e265    -210.3592908897416    1.0   storageobs
e266    -210.15232735680993    1.0   storageobs
e267    -208.06056692406594    1.0   storageobs
e268    -207.89429884509013    1.0   storageobs
e269    -207.72803076611436    1.0   storageobs
e270    -207.56176268713853    1.0   storageobs
e271    -207.39549460816275    1.0   storageobs
e272    -207.22922652918697    1.0   storageobs
e273    -207.06295845021114    1.0   storageobs
e274    -206.89669037123537    1.0   storageobs
e275    -207.68426428988951    1.0   storageobs
e276    -207.50064137165592    1.0   storageobs
e277    -207.31701845342235    1.0   storageobs
e278    -207.13339553518881    1.0   storageobs
e279    -206.94977261695522    1.0   storageobs
e280    -206.76614969872168    1.0   storageobs
e281    -206.58252678048811    1.0   storageobs
e282    -206.39890386225451    1.0   storageobs
e283    -206.21528094402092    1.0   storageobs
e284    -206.03165802578732    1.0   storageobs
e285    -205.84803510755378    1.0   storageobs
e286    -205.66441218932019    1.0   storageobs
e287    -205.48078927108662    1.0   storageobs
e288    -205.29716635285308    1.0   storageobs
e289    -205.11354343461949    1.0   storageobs
e290    -206.04023371631243    1.0   storageobs
e291    -205.77992864857697    1.0   storageobs
e292    -205.51962358084151    1.0   storageobs
e293    -205.25931851310602    1.0   storageobs
e294    -204.99901344537057    1.0   storageobs
e295    -204.73870837763505    1.0   storageobs
e296    -202.80557105982385    1.0   storageobs
e297    -202.57631240209457    1.0   storageobs
e298    -202.34705374436527    1.0   storageobs
e299    -202.11779508663599    1.0   storageobs
e300    -201.88853642890666    1.0   storageobs
e301    -201.65927777117739    1.0   storageobs
e302    -201.43001911344808    1.0   storageobs
e303    -201.20076045571884    1.0   storageobs
e304    -200.97150179798948    1.0   storageobs
e305    -200.7422431402602    1.0   storageobs
e306    -200.51298448253095    1.0   storageobs
e307    -200.28372582480165    1.0   storageobs
e308    -200.05446716707235    1.0   storageobs
e309    -199.82520850934301    1.0   storageobs
e310    -199.59594985161374    1.0   storageobs
e311    -199.36669119388446    1.0   storageobs
e312    -199.13743253615516    1.0   storageobs
e313    -198.90817387842588    1.0   storageobs
e314    -198.67891522069658    1.0   storageobs
e315    -198.44965656296728    1.0   storageobs
e316    -198.220397905238    1.0   storageobs
e317    -197.99113924750873    1.0   storageobs
e318    -197.76188058977942    1.0   storageobs
e319    -197.53262193205015    1.0   storageobs
e320    -197.30336327432084    1.0   storageobs
e321    -197.07410461659154    1.0   storageobs
e322    -196.84484595886224    1.0   storageobs
e323    -197.68548466567273    1.0   storageobs
e324    -197.39913928749058    1.0   storageobs
e325    -198.26294358458532    1.0   storageobs
e326    -198.02765112598354    1.0   storageobs
e327    -197.79235866738173    1.0   storageobs
e328    -200.61090499741255    1.0   storageobs
e329    -200.35547145783994    1.0   storageobs
e330    -200.1000379182673    1.0   storageobs
e331    -199.84460437869473    1.0   storageobs
e332    -199.58917083912215    1.0   storageobs
e333    -199.80759499234526    1.0   storageobs
e334    -199.55574060298602    1.0   storageobs
e335    -200.46455414565324    1.0   storageobs
e336    -200.22299708268676    1.0   storageobs
e337    -199.98144001972028    1.0   storageobs
e338    -199.7398829567538    1.0   storageobs
e339    -199.49832589378732    1.0   storageobs
e340    -199.25676883082082    1.0   storageobs
e341    -199.89915307281811    1.0   storageobs
e342    -199.7210810610496    1.0   storageobs
e343    -201.09363259866086    1.0   storageobs
e344    -200.84704942374304    1.0   storageobs
e345    -200.60046624882523    1.0   storageobs
e346    -200.35388307390738    1.0   storageobs
e347    -200.63897861878922    1.0   storageobs
e348    -200.38814055768637    1.0   storageobs
e349    -200.13730249658357    1.0   storageobs
e350    -199.88646443548072    1.0   storageobs
e351    -199.63562637437789    1.0   storageobs
e352    -199.38478831327507    1.0   storageobs
e353    -199.13395025217221    1.0   storageobs
e354    -198.88311219106942    1.0   storageobs
e355    -199.21352872203988    1.0   storageobs
e356    -199.81005493615055    1.0   storageobs
e357    -199.56274764738612    1.0   storageobs
e358    -199.31544035862169    1.0   storageobs
e359    -199.70202589828156    1.0   storageobs
e360    -199.43080228031042    1.0   storageobs
e361    -199.14265014114386    1.0   storageobs
e362    -198.87951371970217    1.0   storageobs
e363    -198.61637729826052    1.0   storageobs
e364    -198.3532408768188    1.0   storageobs
e365    -198.09010445537712    1.0   storageobs
e366    -197.82696803393543    1.0   storageobs
e367    -197.56383161249374    1.0   storageobs
e368    -197.30069519105206    1.0   storageobs
e369    -197.0375587696104    1.0   storageobs
e370    -196.77442234816871    1.0   storageobs
e371    -196.511285926727    1.0   storageobs
e372    -196.24814950528534    1.0   storageobs
e373    -195.98501308384368    1.0   storageobs
e374    -196.10370938383477    1.0   storageobs
e375    -195.8433123837749    1.0   storageobs
e376    -195.58291538371509    1.0   storageobs
e377    -195.32251838365531    1.0   storageobs
e378    -195.0621213835955    1.0   storageobs
e379    -194.80172438353569    1.0   storageobs
e380    -194.54132738347587    1.0   storageobs
e381    -194.28093038341603    1.0   storageobs
e382    -195.17529197231161    1.0   storageobs
e383    -194.96664656301886    1.0   storageobs
e384    -194.75800115372607    1.0   storageobs
e385    -194.54935574443329    1.0   storageobs
e386    -194.3407103351405    1.0   storageobs
e387    -194.13206492584769    1.0   storageobs
e388    -193.92341951655493    1.0   storageobs
e389    -193.71477410726217    1.0   storageobs
e390    -193.50612869796939    1.0   storageobs
e391    -193.2974832886766    1.0   storageobs
e392    -193.08883787938382    1.0   storageobs
e393    -192.88019247009103    1.0   storageobs
e394    -192.6715470607983    1.0   storageobs
e395    -192.46290165150546    1.0   storageobs
e396    -192.2542562422127    1.0   storageobs
e397    -192.04561083291992    1.0   storageobs
e398    -191.83696542362711    1.0   storageobs
e399    -191.90773967617002    1.0   storageobs
e400    -191.70074167787527    1.0   storageobs
e401    -192.17683853759607    1.0   storageobs
e402    -191.99823567856021    1.0   storageobs
e403    -191.81963281952429    1.0   storageobs
e404    -191.64102996048845    1.0   storageobs
e405    -191.46242710145256    1.0   storageobs
e406    -191.28382424241664    1.0   storageobs
e407    -191.10522138338078    1.0   storageobs
e408    -190.92661852434489    1.0   storageobs
e409    -190.748015665309    1.0   storageobs
e410    -189.87956557228904    1.0   storageobs
e411    -189.68416007051218    1.0   storageobs
e412    -189.51823962657278    1.0   storageobs
e413    -190.22077500196417    1.0   storageobs
e414    -190.00973390759168    1.0   storageobs
e415    -189.79869281321925    1.0   storageobs
e416    -189.58765171884679    1.0   storageobs
e417    -189.37661062447435    1.0   storageobs
e418    -189.80834650785923    1.0   storageobs
e419    -189.60785342151686    1.0   storageobs
e420    -189.40736033517447    1.0   storageobs
e421    -189.20686724883211    1.0   storageobs
e422    -189.00637416248972    1.0   storageobs
e423    -188.8058810761473    1.0   storageobs
e424    -188.60538798980494    1.0   storageobs
e425    -188.40489490346255    1.0   storageobs
e426    -191.06309006881631    1.0   storageobs
e427    -190.7841491281313    1.0   storageobs
e428    -190.5052081874463    1.0   storageobs
e429    -190.22626724676132    1.0   storageobs
e430    -191.62049927902652    1.0   storageobs
e431    -191.31450903427114    1.0   storageobs
e432    -191.00851878951573    1.0   storageobs
e433    -190.7025285447603    1.0   storageobs
e434    -190.39653830000489    1.0   storageobs
e435    -190.09054805524951    1.0   storageobs
e436    -189.78455781049411    1.0   storageobs
e437    -189.56896156999619    1.0   storageobs
e438    -189.23863440913601    1.0   storageobs
e439    -188.90830724827583    1.0   storageobs
e440    -188.57798008741574    1.0   storageobs
e441    -188.24765292655556    1.0   storageobs
e442    -187.91732576569541    1.0   storageobs
e443    -187.58699860483523    1.0   storageobs
e444    -187.27497589569887    1.0   storageobs
e445    -187.13155129312707    1.0   storageobs
e446    -186.65515306206032    1.0   storageobs
e447    -186.17875483099354    1.0   storageobs
e448    -185.70235659992679    1.0   storageobs
e449    -185.22595836886006    1.0   storageobs
e450    -185.30715781703404    1.0   storageobs
e451    -184.98848761990035    1.0   storageobs
e452    -184.66981742276667    1.0   storageobs
e453    -184.6015421095322    1.0   storageobs
e454    -184.27137923571462    1.0   storageobs
e455    -183.94121636189709    1.0   storageobs
e456    -183.61105348807951    1.0   storageobs
e457    -183.28089061426189    1.0   storageobs
e458    -182.95072774044431    1.0   storageobs
e459    -182.62056486662675    1.0   storageobs
e460    -182.29040199280919    1.0   storageobs
e461    -181.96023911899158    1.0   storageobs
e462    -181.63007624517402    1.0   storageobs
e463    -181.29991337135641    1.0   storageobs
e464    -180.44953757935173    1.0   storageobs
e465    -180.13512067124228    1.0   storageobs
e466    -179.66376414353172    1.0   storageobs
e467    -179.04064452610882    1.0   storageobs
e468    -178.72924680810885    1.0   storageobs
e469    -178.41784909010889    1.0   storageobs
e470    -178.37572968358441    1.0   storageobs
e471    -178.06564787529871    1.0   storageobs
e472    -177.75556606701306    1.0   storageobs
e473    -177.44548425872742    1.0   storageobs
e474    -177.45549329448679    1.0   storageobs
e475    -177.48389984054447    1.0   storageobs
e476    -177.0999125593263    1.0   storageobs
e477    -176.71592527810813    1.0   storageobs
e478    -176.18890971629878    1.0   storageobs
e479    -176.47657050420565    1.0   storageobs
e480    -176.09216520314001    1.0   storageobs
e481    -175.70775990207434    1.0   storageobs
e482    -175.3233546010087    1.0   storageobs
e483    -174.93894929994309    1.0   storageobs
e484    -174.55454399887745    1.0   storageobs
e485    -174.17013869781181    1.0   storageobs
e486    -174.68776412706481    1.0   storageobs
e487    -175.92823871629932    1.0   storageobs
e488    -175.19703097544968    1.0   storageobs
e489    -174.46582323460015    1.0   storageobs
e490    -173.62122983144573    1.0   storageobs
e491    -172.8565607926576    1.0   storageobs
e492    -172.0918917538695    1.0   storageobs
e493    -171.32722271508143    1.0   storageobs
e494    -172.28845834235872    1.0   storageobs
e495    -171.9628684656341    1.0   storageobs
e496    -171.62479410718819    1.0   storageobs
e497    -171.28671974874226    1.0   storageobs
e498    -172.66674091192769    1.0   storageobs
e499    -171.74906159799608    1.0   storageobs
e500    -171.3447896826421    1.0   storageobs
e501    -171.15246331825213    1.0   storageobs
e502    -170.86074632451579    1.0   storageobs
e503    -170.56902933077941    1.0   storageobs
e504    -170.27731233704313    1.0   storageobs
e505    -169.88339001148648    1.0   storageobs
e506    -169.59951033205834    1.0   storageobs
e507    -169.31563065263026    1.0   storageobs
e508    -169.03175097320215    1.0   storageobs
e509    -168.74787129377404    1.0   storageobs
e510    -168.46399161434593    1.0   storageobs
e511    -168.18011193491782    1.0   storageobs
e512    -168.15753427698613    1.0   storageobs
e513    -167.87681026895936    1.0   storageobs
e514    -167.59608626093262    1.0   storageobs
e515    -167.31536225290586    1.0   storageobs
e516    -167.03463824487909    1.0   storageobs
e517    -166.7539142368523    1.0   storageobs
e518    -166.65347472237934    1.0   storageobs
e519    -166.35633574958862    1.0   storageobs
e520    -166.05919677679788    1.0   storageobs
e521    -165.76205780400721    1.0   storageobs
e522    -165.96920560829483    1.0   storageobs
e523    -165.68147534687728    1.0   storageobs
e524    -165.39374508545967    1.0   storageobs
e525    -165.65028658921148    1.0   storageobs
e526    -165.34705352618994    1.0   storageobs
e527    -165.04382046316834    1.0   storageobs
e528    -164.80806120871563    1.0   storageobs
e529    -164.46710639992961    1.0   storageobs
e530    -164.12615159114364    1.0   storageobs
e531    -163.78519678235759    1.0   storageobs
e532    -163.44424197357156    1.0   storageobs
e533    -161.33247047919116    1.0   storageobs
e534    -160.95937887335606    1.0   storageobs
e535    -160.63012052380157    1.0   storageobs
e536    -160.32033990282184    1.0   storageobs
e537    -159.98279623825061    1.0   storageobs
e538    -159.62667308338513    1.0   storageobs
e539    -160.31606133210747    1.0   storageobs
e540    -159.90478505411767    1.0   storageobs
e541    -158.91886518872334    1.0   storageobs
e542    -158.57275688967511    1.0   storageobs
e543    -158.22664859062687    1.0   storageobs
e544    -157.88054029157871    1.0   storageobs
e545    -157.5344319925305    1.0   storageobs
e546    -157.18832369348229    1.0   storageobs
e547    -156.84221539443408    1.0   storageobs
e548    -156.49610709538587    1.0   storageobs
e549    -158.36798085211063    1.0   storageobs
e550    -158.05125194944088    1.0   storageobs
e551    -163.27934709795895    1.0   storageobs
e552    -162.8177341366607    1.0   storageobs
e553    -162.35612117536246    1.0   storageobs
e554    -161.89450821406419    1.0   storageobs
e555    -161.43289525276595    1.0   storageobs
e556    -160.9712822914677    1.0   storageobs
e557    -161.87348563833035    1.0   storageobs
e558    -161.42645858879001    1.0   storageobs
e559    -160.97943153924967    1.0   storageobs
e560    -160.53240448970934    1.0   storageobs
e561    -160.085377440169    1.0   storageobs
e562    -159.63835039062866    1.0   storageobs
e563    -159.19132334108829    1.0   storageobs
e564    -158.74429629154798    1.0   storageobs
e565    -158.0106040847991    1.0   storageobs
e566    -157.53209029009392    1.0   storageobs
e567    -157.05357649538871    1.0   storageobs
e568    -156.5750627006835    1.0   storageobs
e569    -156.0965489059783    1.0   storageobs
e570    -159.11648820883434    1.0   storageobs
e571    -158.38146246835774    1.0   storageobs
e572    -157.64643672788114    1.0   storageobs
e573    -156.91141098740451    1.0   storageobs
e574    -156.17638524692794    1.0   storageobs
e575    -154.83946228939689    1.0   storageobs
e576    -154.00546747306092    1.0   storageobs
e577    -153.17147265672483    1.0   storageobs
e578    -152.3374778403888    1.0   storageobs
e579    -151.29916561994884    1.0   storageobs
e580    -150.49102790242918    1.0   storageobs
e581    -149.68289018490955    1.0   storageobs
e582    -149.36595239745034    1.0   storageobs
e583    -147.74870978113097    1.0   storageobs
e584    -146.89218290468162    1.0   storageobs
e585    -146.03565602823232    1.0   storageobs
e586    -145.17912915178306    1.0   storageobs
e587    -144.32260227533371    1.0   storageobs
e588    -143.46607539888441    1.0   storageobs
e589    -142.11243542432493    1.0   storageobs
e590    -141.1856290497837    1.0   storageobs
e591    -139.97618024315307    1.0   storageobs
e592    -139.01025797576617    1.0   storageobs
e593    -140.86775368684116    1.0   storageobs
e594    -138.37836864528634    1.0   storageobs
e595    -137.25101238633346    1.0   storageobs
e596    -136.12365612738057    1.0   storageobs
e597    -134.99629986842771    1.0   storageobs
e598    -133.86894360947483    1.0   storageobs
e599    -132.74158735052194    1.0   storageobs
e600    -132.28653268536124    1.0   storageobs
e601    -133.88925073302002    1.0   storageobs
e602    -132.94168773764011    1.0   storageobs
e603    -131.31953534563192    1.0   storageobs
e604    -130.42223803318711    1.0   storageobs
e605    -129.52494072074231    1.0   storageobs