pcf
* control data
restart  estimation
    4  1410     4     0     2
    1     1 double point   1   0   0
   5.0  2.0   0.3  0.03    20
  3.0   3.0 0.001  0
  0.1
   30  0.01     4     5    0.01     5
    1     1     1
* parameter groups
b            relative 0.01  0.0  switch  2.0 parabolic
psi_s        relative 0.01  0.0  switch  2.0 parabolic
Ksmacz0      relative 0.01  0.0  switch  2.0 parabolic
alpha        relative 0.01  0.0  switch  2.0 parabolic
* parameter data
b           none relative   7.4  0.01     30.0       b          1.0  0.0  1
psi_s       none relative   -0.024  -0.3     -0.0001      psi_s      1.0  0.0  1
ksmacz0     log  factor    7.300000      1.0e-01  1.0e+10  ksmacz0    1.0  0.0  1
alpha       none relative    3.000000      1.01        10.0   alpha      1.0  0.0  1
* observation groups
storageobs   ekolongouma_storageobs_errcovB.dat
timeobs   ekolongouma_timeobs_errcovB.dat
* observation data
e1    -171.65078256010963    1.0   storageobs
e2    -171.48587520141993    1.0   storageobs
e3    -171.32096784273023    1.0   storageobs
e4    -171.15606048404052    1.0   storageobs
e5    -170.99115312535082    1.0   storageobs
e6    -170.82624576666112    1.0   storageobs
e7    -170.66133840797141    1.0   storageobs
e8    -170.49643104928171    1.0   storageobs
e9    -170.33152369059201    1.0   storageobs
e10    -170.16661633190233    1.0   storageobs
e11    -170.0017089732126    1.0   storageobs
e12    -169.83680161452293    1.0   storageobs
e13    -169.67189425583319    1.0   storageobs
e14    -169.50698689714352    1.0   storageobs
e15    -169.34207953845379    1.0   storageobs
e16    -169.17717217976409    1.0   storageobs
e17    -169.01226482107438    1.0   storageobs
e18    -168.84735746238468    1.0   storageobs
e19    -168.68245010369498    1.0   storageobs
e20    -168.5175427450053    1.0   storageobs
e21    -168.35263538631557    1.0   storageobs
e22    -168.18772802762589    1.0   storageobs
e23    -168.02282066893616    1.0   storageobs
e24    -167.85791331024649    1.0   storageobs
e25    -167.69300595155676    1.0   storageobs
e26    -167.52809859286708    1.0   storageobs
e27    -167.36319123417738    1.0   storageobs
e28    -167.19828387548768    1.0   storageobs
e29    -167.03337651679797    1.0   storageobs
e30    -166.86846915810827    1.0   storageobs
e31    -166.70356179941854    1.0   storageobs
e32    -166.53865444072886    1.0   storageobs
e33    -166.37374708203913    1.0   storageobs
e34    -166.20883972334946    1.0   storageobs
e35    -166.04393236465972    1.0   storageobs
e36    -165.87902500597005    1.0   storageobs
e37    -165.71411764728035    1.0   storageobs
e38    -165.54921028859064    1.0   storageobs
e39    -165.38430292990094    1.0   storageobs
e40    -165.21939557121124    1.0   storageobs
e41    -165.05448821252153    1.0   storageobs
e42    -164.88958085383183    1.0   storageobs
e43    -164.72467349514216    1.0   storageobs
e44    -164.55976613645242    1.0   storageobs
e45    -164.39485877776272    1.0   storageobs
e46    -164.22995141907302    1.0   storageobs
e47    -164.06504406038331    1.0   storageobs
e48    -163.90013670169361    1.0   storageobs
e49    -163.73522934300391    1.0   storageobs
e50    -163.57032198431421    1.0   storageobs
e51    -163.4054146256245    1.0   storageobs
e52    -163.2405072669348    1.0   storageobs
e53    -163.07559990824512    1.0   storageobs
e54    -162.91069254955539    1.0   storageobs
e55    -162.74578519086572    1.0   storageobs
e56    -162.58087783217599    1.0   storageobs
e57    -162.41597047348631    1.0   storageobs
e58    -162.25106311479658    1.0   storageobs
e59    -163.71757016716356    1.0   storageobs
e60    -163.5010513031003    1.0   storageobs
e61    -163.28453243903698    1.0   storageobs
e62    -163.06801357497372    1.0   storageobs
e63    -162.85149471091043    1.0   storageobs
e64    -162.02178306973218    1.0   storageobs
e65    -161.81048459179175    1.0   storageobs
e66    -161.59918611385132    1.0   storageobs
e67    -161.38788763591089    1.0   storageobs
e68    -161.17658915797045    1.0   storageobs
e69    -160.96529068003005    1.0   storageobs
e70    -162.23849224538068    1.0   storageobs
e71    -161.99713586830458    1.0   storageobs
e72    -161.7557794912284    1.0   storageobs
e73    -161.51442311415227    1.0   storageobs
e74    -161.27306673707611    1.0   storageobs
e75    -161.03171035999995    1.0   storageobs
e76    -160.79035398292379    1.0   storageobs
e77    -160.54899760584763    1.0   storageobs
e78    -160.3076412287715    1.0   storageobs
e79    -160.06628485169534    1.0   storageobs
e80    -159.82492847461916    1.0   storageobs
e81    -159.58357209754305    1.0   storageobs
e82    -159.34221572046687    1.0   storageobs
e83    -159.10085934339074    1.0   storageobs
e84    -158.85950296631458    1.0   storageobs
e85    -158.61814658923842    1.0   storageobs
e86    -158.37679021216229    1.0   storageobs
e87    -158.16061830312395    1.0   storageobs
e88    -157.92019469002349    1.0   storageobs
e89    -157.679771076923    1.0   storageobs
e90    -157.43934746382249    1.0   storageobs
e91    -157.198923850722    1.0   storageobs
e92    -156.95850023762154    1.0   storageobs
e93    -156.71807662452102    1.0   storageobs
e94    -156.47765301142059    1.0   storageobs
e95    -156.23722939832007    1.0   storageobs
e96    -155.99680578521961    1.0   storageobs
e97    -155.75638217211912    1.0   storageobs
e98    -155.51595855901863    1.0   storageobs
e99    -156.70445187111216    1.0   storageobs
e100    -156.3675947320146    1.0   storageobs
e101    -156.03073759291698    1.0   storageobs
e102    -155.69388045381939    1.0   storageobs
e103    -155.35702331472177    1.0   storageobs
e104    -155.02016617562418    1.0   storageobs
e105    -154.68330903652657    1.0   storageobs
e106    -154.34645189742898    1.0   storageobs
e107    -153.79470450506261    1.0   storageobs
e108    -153.43077347970214    1.0   storageobs
e109    -153.06684245434164    1.0   storageobs
e110    -152.70291142898117    1.0   storageobs
e111    -152.33898040362064    1.0   storageobs
e112    -151.11992824746292    1.0   storageobs
e113    -150.78879918130943    1.0   storageobs
e114    -150.45767011515593    1.0   storageobs
e115    -149.89653715708147    1.0   storageobs
e116    -149.18999170838001    1.0   storageobs
e117    -148.87294247903975    1.0   storageobs
e118    -148.55589324969952    1.0   storageobs
e119    -148.23884402035932    1.0   storageobs
e120    -147.92179479101904    1.0   storageobs
e121    -147.60474556167884    1.0   storageobs
e122    -147.28769633233858    1.0   storageobs
e123    -147.03546540322552    1.0   storageobs
e124    -146.7188008375239    1.0   storageobs
e125    -146.40213627182226    1.0   storageobs
e126    -146.08547170612061    1.0   storageobs
e127    -145.768807140419    1.0   storageobs
e128    -147.03349590403593    1.0   storageobs
e129    -146.60524669953634    1.0   storageobs
e130    -146.17699749503674    1.0   storageobs
e131    -145.74874829053721    1.0   storageobs
e132    -147.03565034805493    1.0   storageobs
e133    -146.69077866020933    1.0   storageobs
e134    -146.34590697236374    1.0   storageobs
e135    -146.00103528451811    1.0   storageobs
e136    -145.65616359667254    1.0   storageobs
e137    -145.31129190882697    1.0   storageobs
e138    -144.96642022098135    1.0   storageobs
e139    -146.24862347325345    1.0   storageobs
e140    -146.02626158993368    1.0   storageobs
e141    -145.69116716916031    1.0   storageobs
e142    -145.35607274838688    1.0   storageobs
e143    -145.02097832761351    1.0   storageobs
e144    -144.6858839068401    1.0   storageobs
e145    -144.50843563921046    1.0   storageobs
e146    -144.18413468521663    1.0   storageobs
e147    -143.85983373122281    1.0   storageobs
e148    -143.02668407909917    1.0   storageobs
e149    -142.72758469748345    1.0   storageobs
e150    -143.52158861391513    1.0   storageobs
e151    -143.31351346174631    1.0   storageobs
e152    -143.10543830957755    1.0   storageobs
e153    -142.89736315740876    1.0   storageobs
e154    -142.68928800523994    1.0   storageobs
e155    -142.48121285307116    1.0   storageobs
e156    -142.27313770090237    1.0   storageobs
e157    -142.06506254873355    1.0   storageobs
e158    -142.30415202551936    1.0   storageobs
e159    -142.04915485819473    1.0   storageobs
e160    -141.65795195052507    1.0   storageobs
e161    -141.3957025446802    1.0   storageobs
e162    -141.13345313883531    1.0   storageobs
e163    -141.00414906865305    1.0   storageobs
e164    -140.74467815584828    1.0   storageobs
e165    -140.48520724304348    1.0   storageobs
e166    -140.22573633023865    1.0   storageobs
e167    -139.96626541743385    1.0   storageobs
e168    -139.22876281579576    1.0   storageobs
e169    -138.98513893722028    1.0   storageobs
e170    -138.74151505864475    1.0   storageobs
e171    -139.26090316792954    1.0   storageobs
e172    -139.03073583427945    1.0   storageobs
e173    -138.80056850062934    1.0   storageobs
e174    -138.57040116697925    1.0   storageobs
e175    -138.34023383332914    1.0   storageobs
e176    -138.11006649967896    1.0   storageobs
e177    -137.87989916602891    1.0   storageobs
e178    -138.18555982187664    1.0   storageobs
e179    -138.00479748674985    1.0   storageobs
e180    -137.82403515162304    1.0   storageobs
e181    -137.64327281649625    1.0   storageobs
e182    -137.46251048136941    1.0   storageobs
e183    -137.18244532236417    1.0   storageobs
e184    -137.01109484704654    1.0   storageobs
e185    -136.83974437172887    1.0   storageobs
e186    -136.6683938964112    1.0   storageobs
e187    -136.49704342109354    1.0   storageobs
e188    -136.32569294577587    1.0   storageobs
e189    -136.15434247045823    1.0   storageobs
e190    -136.18302382580333    1.0   storageobs
e191    -136.02057858260454    1.0   storageobs
e192    -135.85813333940575    1.0   storageobs
e193    -135.69568809620699    1.0   storageobs
e194    -135.53324285300818    1.0   storageobs
e195    -135.37079760980936    1.0   storageobs
e196    -135.20835236661054    1.0   storageobs
e197    -135.04590712341181    1.0   storageobs
e198    -134.88346188021299    1.0   storageobs
e199    -134.7210166370142    1.0   storageobs
e200    -134.55857139381541    1.0   storageobs
e201    -134.39612615061662    1.0   storageobs
e202    -134.23368090741783    1.0   storageobs
e203    -134.07123566421905    1.0   storageobs
e204    -133.90879042102023    1.0   storageobs
e205    -133.74634517782144    1.0   storageobs
e206    -133.58389993462262    1.0   storageobs
e207    -133.42145469142386    1.0   storageobs
e208    -133.01922691232471    1.0   storageobs
e209    -132.85230867929718    1.0   storageobs
e210    -132.68539044626971    1.0   storageobs
e211    -132.51847221324221    1.0   storageobs
e212    -132.35155398021473    1.0   storageobs
e213    -132.1846357471872    1.0   storageobs
e214    -132.0177175141597    1.0   storageobs
e215    -131.85079928113225    1.0   storageobs
e216    -131.68388104810472    1.0   storageobs
e217    -131.51696281507725    1.0   storageobs
e218    -131.56994098067204    1.0   storageobs
e219    -131.7387886333419    1.0   storageobs
e220    -131.58972886736109    1.0   storageobs
e221    -132.25573473650678    1.0   storageobs
e222    -135.33129298897208    1.0   storageobs
e223    -134.98670775764162    1.0   storageobs
e224    -134.64212252631117    1.0   storageobs
e225    -134.95558378650261    1.0   storageobs
e226    -134.61258892127285    1.0   storageobs
e227    -134.79200001432187    1.0   storageobs
e228    -134.56632523352692    1.0   storageobs
e229    -134.34065045273195    1.0   storageobs
e230    -134.11497567193703    1.0   storageobs
e231    -134.96656771509117    1.0   storageobs
e232    -134.59878372364935    1.0   storageobs
e233    -134.42131738320168    1.0   storageobs
e234    -134.02447818033824    1.0   storageobs
e235    -133.62763897747482    1.0   storageobs
e236    -133.23079977461137    1.0   storageobs
e237    -132.83396057174795    1.0   storageobs
e238    -132.43712136888453    1.0   storageobs
e239    -132.04028216602109    1.0   storageobs
e240    -131.6434429631577    1.0   storageobs
e241    -132.13901111588709    1.0   storageobs
e242    -131.90890175671848    1.0   storageobs
e243    -131.6787923975499    1.0   storageobs
e244    -131.67494419029609    1.0   storageobs
e245    -131.43312274409661    1.0   storageobs
e246    -131.19130129789713    1.0   storageobs
e247    -130.94947985169759    1.0   storageobs
e248    -130.70765840549814    1.0   storageobs
e249    -130.46583695929863    1.0   storageobs
e250    -130.22401551309915    1.0   storageobs
e251    -131.57151735340375    1.0   storageobs
e252    -131.33704682067884    1.0   storageobs
e253    -131.10257628795395    1.0   storageobs
e254    -130.86810575522901    1.0   storageobs
e255    -130.6336352225041    1.0   storageobs
e256    -130.39916468977918    1.0   storageobs
e257    -130.16469415705427    1.0   storageobs
e258    -129.93022362432936    1.0   storageobs
e259    -129.69575309160447    1.0   storageobs
e260    -129.46128255887953    1.0   storageobs
e261    -129.22681202615462    1.0   storageobs
e262    -128.99234149342971    1.0   storageobs
e263    -128.75787096070482    1.0   storageobs
e264    -128.52340042797991    1.0   storageobs
e265    -128.49883687664246    1.0   storageobs
e266    -128.27819654211569    1.0   storageobs
e267    -127.52284550660249    1.0   storageobs
e268    -129.23420918426484    1.0   storageobs
e269    -129.39846654866    1.0   storageobs
e270    -129.17292177545747    1.0   storageobs
e271    -129.04029272077071    1.0   storageobs
e272    -128.72183222905241    1.0   storageobs
e273    -128.40337173733414    1.0   storageobs
e274    -128.27074268264735    1.0   storageobs
e275    -128.12552076318994    1.0   storageobs
e276    -127.8882017222131    1.0   storageobs
e277    -127.65088268123625    1.0   storageobs
e278    -127.41356364025943    1.0   storageobs
e279    -127.17624459928255    1.0   storageobs
e280    -126.93892555830573    1.0   storageobs
e281    -126.70160651732888    1.0   storageobs
e282    -126.46428747635204    1.0   storageobs
e283    -126.22696843537518    1.0   storageobs
e284    -125.98964939439836    1.0   storageobs
e285    -125.7523303534215    1.0   storageobs
e286    -125.51501131244466    1.0   storageobs
e287    -125.27769227146781    1.0   storageobs
e288    -125.04037323049097    1.0   storageobs
e289    -124.80305418951413    1.0   storageobs
e290    -124.56573514853729    1.0   storageobs
e291    -124.44068836379739    1.0   storageobs
e292    -124.21107602866468    1.0   storageobs
e293    -124.76057916001038    1.0   storageobs
e294    -124.54511957276213    1.0   storageobs
e295    -124.64555940552597    1.0   storageobs
e296    -124.43538890803056    1.0   storageobs
e297    -124.22521841053515    1.0   storageobs
e298    -124.01504791303971    1.0   storageobs
e299    -123.80487741554431    1.0   storageobs
e300    -123.59470691804889    1.0   storageobs
e301    -123.38453642055349    1.0   storageobs
e302    -123.17436592305805    1.0   storageobs
e303    -122.96419542556265    1.0   storageobs
e304    -122.75402492806724    1.0   storageobs
e305    -122.45395527839463    1.0   storageobs
e306    -122.24947497876279    1.0   storageobs
e307    -122.04499467913098    1.0   storageobs
e308    -121.84051437949913    1.0   storageobs
e309    -121.63603407986731    1.0   storageobs
e310    -124.05415429575623    1.0   storageobs
e311    -123.77624001774413    1.0   storageobs
e312    -124.42270671783554    1.0   storageobs
e313    -124.12509414910605    1.0   storageobs
e314    -123.82748158037649    1.0   storageobs
e315    -123.52986901164695    1.0   storageobs
e316    -123.62140660427879    1.0   storageobs
e317    -123.31664686877566    1.0   storageobs
e318    -123.01188713327251    1.0   storageobs
e319    -123.13589945583959    1.0   storageobs
e320    -122.72087995145777    1.0   storageobs
e321    -122.38790236984414    1.0   storageobs
e322    -122.44561014680525    1.0   storageobs
e323    -122.11099298605039    1.0   storageobs
e324    -121.77637582529552    1.0   storageobs
e325    -121.44175866454063    1.0   storageobs
e326    -121.53264416785726    1.0   storageobs
e327    -121.19454395193148    1.0   storageobs
e328    -125.45424181065667    1.0   storageobs
e329    -125.01394656401661    1.0   storageobs
e330    -124.57365131737653    1.0   storageobs
e331    -124.08125849836235    1.0   storageobs
e332    -123.6445842916777    1.0   storageobs
e333    -123.20791008499305    1.0   storageobs
e334    -122.77123587830836    1.0   storageobs
e335    -122.33456167162372    1.0   storageobs
e336    -121.86554396390562    1.0   storageobs
e337    -121.39022137612228    1.0   storageobs
e338    -120.77278803808956    1.0   storageobs
e339    -120.3691183874368    1.0   storageobs
e340    -119.96544873678401    1.0   storageobs
e341    -119.56177908613125    1.0   storageobs
e342    -119.15810943547848    1.0   storageobs
e343    -118.76671238259262    1.0   storageobs
e344    -118.34948256832648    1.0   storageobs
e345    -117.93225275406034    1.0   storageobs
e346    -117.51502293979422    1.0   storageobs
e347    -117.09779312552807    1.0   storageobs
e348    -116.76738095912378    1.0   storageobs
e349    -116.35501568303613    1.0   storageobs
e350    -115.94265040694849    1.0   storageobs
e351    -115.53028513086082    1.0   storageobs
e352    -115.11791985477316    1.0   storageobs
e353    -114.70555457868551    1.0   storageobs
e354    -114.29318930259784    1.0   storageobs
e355    -113.88082402651018    1.0   storageobs
e356    -113.2227311649835    1.0   storageobs
e357    -112.82754353556261    1.0   storageobs
e358    -112.43235590614174    1.0   storageobs
e359    -112.07163429938829    1.0   storageobs
e360    -111.67044067595928    1.0   storageobs
e361    -111.26331956737053    1.0   storageobs
e362    -110.94998614768238    1.0   storageobs
e363    -110.51455368337975    1.0   storageobs
e364    -110.1082237038018    1.0   storageobs
e365    -109.70189372422382    1.0   storageobs
e366    -109.29556374464586    1.0   storageobs
e367    -111.63340766175799    1.0   storageobs
e368    -111.30387466777323    1.0   storageobs
e369    -110.97434167378846    1.0   storageobs
e370    -110.64480867980369    1.0   storageobs
e371    -110.31527568581892    1.0   storageobs
e372    -109.98574269183413    1.0   storageobs
e373    -109.65620969784941    1.0   storageobs
e374    -111.0894018913844    1.0   storageobs
e375    -110.79609283079394    1.0   storageobs
e376    -110.50278377020345    1.0   storageobs
e377    -110.20947470961296    1.0   storageobs
e378    -109.91616564902249    1.0   storageobs
e379    -110.27244494379649    1.0   storageobs
e380    -109.20832532660583    1.0   storageobs
e381    -108.47771801380701    1.0   storageobs
e382    -108.2225925616919    1.0   storageobs
e383    -107.96746710957673    1.0   storageobs
e384    -107.71234165746161    1.0   storageobs
e385    -107.45721620534647    1.0   storageobs
e386    -107.39877520458786    1.0   storageobs
e387    -107.06497597193011    1.0   storageobs
e388    -106.73117673927239    1.0   storageobs
e389    -106.39737750661466    1.0   storageobs
e390    -106.06357827395696    1.0   storageobs
e391    -105.72977904129925    1.0   storageobs
e392    -105.59589877316536    1.0   storageobs
e393    -105.2418248252098    1.0   storageobs
e394    -105.00906285156816    1.0   storageobs
e395    -104.77641690540791    1.0   storageobs
e396    -104.54377095924767    1.0   storageobs
e397    -104.59952492440409    1.0   storageobs
e398    -104.78585410560852    1.0   storageobs
e399    -104.57590650538806    1.0   storageobs
e400    -104.66281531782015    1.0   storageobs
e401    -104.46375140185719    1.0   storageobs
e402    -104.26468748589423    1.0   storageobs
e403    -104.06562356993126    1.0   storageobs
e404    -105.45692658257094    1.0   storageobs
e405    -105.25578976588159    1.0   storageobs
e406    -104.01284413140829    1.0   storageobs
e407    -102.97565614280855    1.0   storageobs
e408    -102.77632685838489    1.0   storageobs
e409    -102.08824897937347    1.0   storageobs
e410    -101.40017110036203    1.0   storageobs
e411    -103.16964059574758    1.0   storageobs
e412    -103.81195372998936    1.0   storageobs
e413    -103.54961640093715    1.0   storageobs
e414    -103.01910358004238    1.0   storageobs
e415    -102.77486420342002    1.0   storageobs
e416    -102.87236075241373    1.0   storageobs
e417    -103.05495860082735    1.0   storageobs
e418    -103.05261540398057    1.0   storageobs
e419    -103.65131778433035    1.0   storageobs
e420    -103.34828721177865    1.0   storageobs
e421    -103.33622047671102    1.0   storageobs
e422    -103.15913116117555    1.0   storageobs
e423    -102.84713137320698    1.0   storageobs
e424    -102.5351315852384    1.0   storageobs
e425    -101.66498593967556    1.0   storageobs
e426    -101.35971731330166    1.0   storageobs
e427    -101.05444868692777    1.0   storageobs
e428    -100.7491800605539    1.0   storageobs
e429    -100.22768724081565    1.0   storageobs
e430    -99.929169162587286    1.0   storageobs
e431    -99.997105695946857    1.0   storageobs
e432    -99.687606492054087    1.0   storageobs
e433    -99.675316697745401    1.0   storageobs
e434    -99.385002324439483    1.0   storageobs
e435    -99.094687951133523    1.0   storageobs
e436    -99.405210957580621    1.0   storageobs
e437    -99.04303872912206    1.0   storageobs
e438    -99.022163303371542    1.0   storageobs
e439    -98.276025510286331    1.0   storageobs
e440    -98.756386978252166    1.0   storageobs
e441    -98.37684528089666    1.0   storageobs
e442    -98.175391551710874    1.0   storageobs
e443    -97.780296189092454    1.0   storageobs
e444    -97.420409664701936    1.0   storageobs
e445    -97.100198459857026    1.0   storageobs
e446    -96.953503473035994    1.0   storageobs
e447    -96.604810110926849    1.0   storageobs
e448    -96.238629445466245    1.0   storageobs
e449    -95.659714362946374    1.0   storageobs
e450    -95.362094898669099    1.0   storageobs
e451    -94.983142505688662    1.0   storageobs
e452    -94.49977372349727    1.0   storageobs
e453    -94.124721711092548    1.0   storageobs
e454    -93.819409864521788    1.0   storageobs
e455    -93.716351519059529    1.0   storageobs
e456    -93.198674993752178    1.0   storageobs
e457    -92.685048459055693    1.0   storageobs
e458    -92.234989079860469    1.0   storageobs
e459    -91.784929700665245    1.0   storageobs
e460    -91.701614383117615    1.0   storageobs
e461    -91.113295968315754    1.0   storageobs
e462    -90.524977553513878    1.0   storageobs
e463    -90.71053473013329    1.0   storageobs
e464    -90.182517623309082    1.0   storageobs
e465    -89.732394067247384    1.0   storageobs
e466    -89.184945240695356    1.0   storageobs
e467    -88.916844138942395    1.0   storageobs
e468    -88.355128076477712    1.0   storageobs
e469    -87.793412014013057    1.0   storageobs
e470    -86.927389676379505    1.0   storageobs
e471    -87.116122738170347    1.0   storageobs
e472    -86.436439611773764    1.0   storageobs
e473    -86.00642602657561    1.0   storageobs
e474    -85.65615876070369    1.0   storageobs
e475    -84.865837817095581    1.0   storageobs
e476    -84.444809493728457    1.0   storageobs
e477    -84.02378117036136    1.0   storageobs
e478    -84.146273086054208    1.0   storageobs
e479    -83.507395493450559    1.0   storageobs
e480    -82.868517900846896    1.0   storageobs
e481    -82.229640308243219    1.0   storageobs
e482    -81.618842462256282    1.0   storageobs
e483    -80.817923709403175    1.0   storageobs
e484    -81.151399456309022    1.0   storageobs
e485    -80.700703242242227    1.0   storageobs
e486    -80.192204568369178    1.0   storageobs
e487    -79.440134398768834    1.0   storageobs
e488    -78.981261500011101    1.0   storageobs
e489    -77.999488497084016    1.0   storageobs
e490    -77.523131231656791    1.0   storageobs
e491    -76.864638841631191    1.0   storageobs
e492    -76.371625883540972    1.0   storageobs
e493    -75.878612925450753    1.0   storageobs
e494    -75.31984691522058    1.0   storageobs
e495    -75.016402787437229    1.0   storageobs
e496    -74.778261901952774    1.0   storageobs
e497    -74.269672116523168    1.0   storageobs
e498    -73.76108233109359    1.0   storageobs
e499    -73.670681038070782    1.0   storageobs
e500    -73.186267752304602    1.0   storageobs
e501    -72.701854466538421    1.0   storageobs
e502    -72.866944998675748    1.0   storageobs
e503    -73.125140150375472    1.0   storageobs
e504    -72.50558447892098    1.0   storageobs
e505    -71.886028807466474    1.0   storageobs
e506    -71.517021209214164    1.0   storageobs
e507    -70.626292933571904    1.0   storageobs
e508    -68.869334356534964    1.0   storageobs
e509    -68.681917450239652    1.0   storageobs
e510    -68.054817340020435    1.0   storageobs
e511    -66.868342231668521    1.0   storageobs
e512    -66.271762303804991    1.0   storageobs
e513    -65.167226854504378    1.0   storageobs
e514    -65.513681820899322    1.0   storageobs
e515    -64.609162876349018    1.0   storageobs
e516    -64.162388344784546    1.0   storageobs
e517    -63.089292002125831    1.0   storageobs
e518    -62.621718030278181    1.0   storageobs
e519    -63.865047527414049    1.0   storageobs
e520    -63.230464850780876    1.0   storageobs
e521    -62.595882174147697    1.0   storageobs
e522    -61.961299497514538    1.0   storageobs
e523    -62.811356113727847    1.0   storageobs
e524    -62.362765568872966    1.0   storageobs
e525    -61.825305983789725    1.0   storageobs
e526    -60.040050192412586    1.0   storageobs
e527    -60.819468631375607    1.0   storageobs
e528    -59.066132878321945    1.0   storageobs
e529    -58.273817371682512    1.0   storageobs
e530    -57.481501865043064    1.0   storageobs
e531    -56.689186358403632    1.0   storageobs
e532    -56.109359169561117    1.0   storageobs
e533    -55.310689535969182    1.0   storageobs
e534    -56.81656390981702    1.0   storageobs
e535    -54.566403294267282    1.0   storageobs
e536    -51.045349673497086    1.0   storageobs
e537    -54.335915992358743    1.0   storageobs
e538    -53.400648678007748    1.0   storageobs
e539    -53.758724289038398    1.0   storageobs
e540    -53.045119634097361    1.0   storageobs
e541    -50.863809989381622    1.0   storageobs
e542    -49.926692958649376    1.0   storageobs
e543    -49.042059863648326    1.0   storageobs
e544    -48.096181394764052    1.0   storageobs
e545    -47.150302925879771    1.0   storageobs
e546    -47.978177939679306    1.0   storageobs
e547    -47.475318680813444    1.0   storageobs
e548    -46.740234708832112    1.0   storageobs
e549    -46.277825629975425    1.0   storageobs
e550    -45.580468643347238    1.0   storageobs
e551    -46.892975438562324    1.0   storageobs
e552    -46.569361690435883    1.0   storageobs
e553    -46.824688297688461    1.0   storageobs
e554    -46.213287946497871    1.0   storageobs
e555    -45.601887595307289    1.0   storageobs
e556    -44.990487244116714    1.0   storageobs
e557    -44.379086892926125    1.0   storageobs
e558    -43.767686541735543    1.0   storageobs
e559    -43.156286190544961    1.0   storageobs
e560    -41.507668537662589    1.0   storageobs
e561    -40.837470644479026    1.0   storageobs
e562    -40.167272751295464    1.0   storageobs
e563    -39.497074858111894    1.0   storageobs
e564    -38.826876964928331    1.0   storageobs
e565    -38.156679071744783    1.0   storageobs
e566    -36.392785502094192    1.0   storageobs
e567    -38.293162937772244    1.0   storageobs
e568    -38.24533272287978    1.0   storageobs
e569    -44.000506032279411    1.0   storageobs
e570    -45.487564788543764    1.0   storageobs
e571    -43.809546544527571    1.0   storageobs
e572    -42.13152830051137    1.0   storageobs
e573    -40.453510056495155    1.0   storageobs
e574    -38.775491812478961    1.0   storageobs
e575    -37.09747356846276    1.0   storageobs
e576    -36.597295039257013    1.0   storageobs
e577    -34.911562094699065    1.0   storageobs
e578    -33.484212953794035    1.0   storageobs
e579    -31.729606033801058    1.0   storageobs
e580    -29.661402609120781    1.0   storageobs
e581    -27.619846186083063    1.0   storageobs
e582    -25.578289763045337    1.0   storageobs
e583    -23.536733340007622    1.0   storageobs
e584    -32.314005870390737    1.0   storageobs
e585    -31.534414579319602    1.0   storageobs
e586    -30.75482328824846    1.0   storageobs
e587    -29.975231997177318    1.0   storageobs
e588    -29.812517766588826    1.0   storageobs
e589    -30.161717639707298    1.0   storageobs
e590    -28.573568075395976    1.0   storageobs
e591    -29.576298912778608    1.0   storageobs
e592    -30.904543159547007    1.0   storageobs
e593    -30.509407714413232    1.0   storageobs
e594    -30.114272269279457    1.0   storageobs
e595    -30.745416945291286    1.0   storageobs
e596    -30.438183232317929    1.0   storageobs
e597    -30.121402480672838    1.0   storageobs
e598    -28.954229765725906    1.0   storageobs
e599    -28.920660472754395    1.0   storageobs
e600    -32.010973872699687    1.0   storageobs
e601    -31.136321851428395    1.0   storageobs
e602    -30.279955475879618    1.0   storageobs
e603    -30.667631691817565    1.0   storageobs
e604    -29.735069405818457    1.0   storageobs
e605    -28.80250711981936    1.0   storageobs
e606    -26.828102184802436    1.0   storageobs
e607    -26.255509771367915    1.0   storageobs
e608    -25.328771654175529    1.0   storageobs
e609    -25.710334611835471    1.0   storageobs