pcf
* control data
restart  estimation
    2  1693     2     0     2
    1     1 double point   1   0   0
   5.0  2.0   0.3  0.03    20
  3.0   3.0 0.001  0
  0.1
   30  0.01     4     5  0.01     5
    1     1     1
* parameter groups
Ksmacz0      relative 0.01  0.0  switch  2.0 parabolic
alpha        relative 0.01  0.0  switch  2.0 parabolic
* parameter data
ksmacz0     log  factor    7.300000      1.0e-1  1.0e+10  ksmacz0    1.0  0.0  1
alpha       none relative    3.000000      1.01        10.0       alpha      1.0  0.0  1
* observation groups
storageobs  
timeobs   
* observation data
e1    -249.94927004155704    1.0   storageobs
e2    -249.84660110292873    1.0   storageobs
e3    -249.74393216430042    1.0   storageobs
e4    -249.64126322567208    1.0   storageobs
e5    -249.53859428704379    1.0   storageobs
e6    -249.43592534841545    1.0   storageobs
e7    -249.33325640978711    1.0   storageobs
e8    -249.2305874711588    1.0   storageobs
e9    -249.12791853253049    1.0   storageobs
e10    -249.02524959390217    1.0   storageobs
e11    -248.92258065527386    1.0   storageobs
e12    -248.81991171664555    1.0   storageobs
e13    -248.71724277801724    1.0   storageobs
e14    -248.6145738393889    1.0   storageobs
e15    -248.51190490076061    1.0   storageobs
e16    -248.40923596213227    1.0   storageobs
e17    -248.30656702350396    1.0   storageobs
e18    -248.20389808487562    1.0   storageobs
e19    -248.10122914624731    1.0   storageobs
e20    -247.99856020761899    1.0   storageobs
e21    -247.89589126899068    1.0   storageobs
e22    -247.79322233036237    1.0   storageobs
e23    -247.69055339173406    1.0   storageobs
e24    -246.72452624810194    1.0   storageobs
e25    -246.63501896069178    1.0   storageobs
e26    -246.5455116732816    1.0   storageobs
e27    -246.45600438587141    1.0   storageobs
e28    -246.36649709846122    1.0   storageobs
e29    -246.27698981105104    1.0   storageobs
e30    -246.18748252364085    1.0   storageobs
e31    -246.0979752362307    1.0   storageobs
e32    -246.00846794882054    1.0   storageobs
e33    -245.91896066141032    1.0   storageobs
e34    -245.82945337400017    1.0   storageobs
e35    -245.73994608658995    1.0   storageobs
e36    -245.6504387991798    1.0   storageobs
e37    -245.56093151176961    1.0   storageobs
e38    -245.47142422435945    1.0   storageobs
e39    -245.38191693694924    1.0   storageobs
e40    -245.29240964953908    1.0   storageobs
e41    -245.20290236212892    1.0   storageobs
e42    -245.11339507471871    1.0   storageobs
e43    -245.02388778730855    1.0   storageobs
e44    -244.93438049989837    1.0   storageobs
e45    -244.84487321248821    1.0   storageobs
e46    -244.75536592507805    1.0   storageobs
e47    -244.66585863766787    1.0   storageobs
e48    -244.57635135025768    1.0   storageobs
e49    -244.4868440628475    1.0   storageobs
e50    -244.39733677543731    1.0   storageobs
e51    -244.30782948802712    1.0   storageobs
e52    -244.21832220061697    1.0   storageobs
e53    -244.12881491320681    1.0   storageobs
e54    -244.0393076257966    1.0   storageobs
e55    -243.50955356695636    1.0   storageobs
e56    -243.41194634794243    1.0   storageobs
e57    -243.31433912892851    1.0   storageobs
e58    -243.21673190991459    1.0   storageobs
e59    -243.11912469090066    1.0   storageobs
e60    -243.02151747188671    1.0   storageobs
e61    -242.92391025287276    1.0   storageobs
e62    -242.82630303385884    1.0   storageobs
e63    -242.72869581484491    1.0   storageobs
e64    -242.63108859583099    1.0   storageobs
e65    -242.53348137681706    1.0   storageobs
e66    -242.43587415780311    1.0   storageobs
e67    -242.33826693878919    1.0   storageobs
e68    -242.24065971977527    1.0   storageobs
e69    -242.14305250076131    1.0   storageobs
e70    -242.04544528174739    1.0   storageobs
e71    -241.94783806273347    1.0   storageobs
e72    -241.85023084371954    1.0   storageobs
e73    -241.75262362470562    1.0   storageobs
e74    -241.65501640569167    1.0   storageobs
e75    -241.55740918667772    1.0   storageobs
e76    -241.45980196766379    1.0   storageobs
e77    -241.36219474864987    1.0   storageobs
e78    -241.26458752963595    1.0   storageobs
e79    -241.16698031062202    1.0   storageobs
e80    -241.0693730916081    1.0   storageobs
e81    -240.97176587259415    1.0   storageobs
e82    -240.87415865358022    1.0   storageobs
e83    -240.77655143456627    1.0   storageobs
e84    -240.67894421555235    1.0   storageobs
e85    -240.58133699653843    1.0   storageobs
e86    -240.4837297775245    1.0   storageobs
e87    -240.38612255851055    1.0   storageobs
e88    -240.28851533949663    1.0   storageobs
e89    -240.1909081204827    1.0   storageobs
e90    -240.09330090146875    1.0   storageobs
e91    -239.99569368245483    1.0   storageobs
e92    -239.8980864634409    1.0   storageobs
e93    -239.80047924442698    1.0   storageobs
e94    -239.70287202541306    1.0   storageobs
e95    -239.60526480639911    1.0   storageobs
e96    -239.50765758738515    1.0   storageobs
e97    -239.41005036837123    1.0   storageobs
e98    -239.31244314935731    1.0   storageobs
e99    -239.21483593034338    1.0   storageobs
e100    -239.11722871132946    1.0   storageobs
e101    -239.01962149231554    1.0   storageobs
e102    -238.92201427330158    1.0   storageobs
e103    -238.82440705428766    1.0   storageobs
e104    -238.72679983527371    1.0   storageobs
e105    -238.62919261625979    1.0   storageobs
e106    -238.53158539724586    1.0   storageobs
e107    -238.43397817823194    1.0   storageobs
e108    -238.33637095921802    1.0   storageobs
e109    -238.23876374020406    1.0   storageobs
e110    -238.14115652119014    1.0   storageobs
e111    -238.04354930217619    1.0   storageobs
e112    -237.94594208316227    1.0   storageobs
e113    -237.84833486414834    1.0   storageobs
e114    -237.75072764513442    1.0   storageobs
e115    -237.65312042612049    1.0   storageobs
e116    -237.52773634565733    1.0   storageobs
e117    -237.40421063885583    1.0   storageobs
e118    -237.28068493205441    1.0   storageobs
e119    -237.15715922525291    1.0   storageobs
e120    -241.39075940086113    1.0   storageobs
e121    -241.13211267200884    1.0   storageobs
e122    -240.87346594315662    1.0   storageobs
e123    -240.61481921430439    1.0   storageobs
e124    -240.35617248545216    1.0   storageobs
e125    -240.09752575659991    1.0   storageobs
e126    -239.83887902774768    1.0   storageobs
e127    -239.58023229889545    1.0   storageobs
e128    -239.32158557004323    1.0   storageobs
e129    -239.062938841191    1.0   storageobs
e130    -238.80429211233877    1.0   storageobs
e131    -238.54564538348654    1.0   storageobs
e132    -238.28699865463429    1.0   storageobs
e133    -238.02835192578209    1.0   storageobs
e134    -237.76970519692986    1.0   storageobs
e135    -237.51105846807761    1.0   storageobs
e136    -237.25241173922538    1.0   storageobs
e137    -236.99376501037315    1.0   storageobs
e138    -236.73511828152093    1.0   storageobs
e139    -236.4764715526687    1.0   storageobs
e140    -236.21782482381641    1.0   storageobs
e141    -235.95917809496419    1.0   storageobs
e142    -235.70053136611196    1.0   storageobs
e143    -235.44188463725973    1.0   storageobs
e144    -235.18323790840751    1.0   storageobs
e145    -234.92459117955528    1.0   storageobs
e146    -234.66594445070302    1.0   storageobs
e147    -234.40729772185082    1.0   storageobs
e148    -234.1486509929986    1.0   storageobs
e149    -233.89000426414634    1.0   storageobs
e150    -233.63135753529411    1.0   storageobs
e151    -233.37271080644189    1.0   storageobs
e152    -233.11406407758966    1.0   storageobs
e153    -232.8554173487374    1.0   storageobs
e154    -232.59677061988518    1.0   storageobs
e155    -232.33812389103295    1.0   storageobs
e156    -232.07947716218072    1.0   storageobs
e157    -231.8208304333285    1.0   storageobs
e158    -231.56218370447627    1.0   storageobs
e159    -231.30353697562404    1.0   storageobs
e160    -231.04489024677181    1.0   storageobs
e161    -230.78624351791959    1.0   storageobs
e162    -230.52759678906736    1.0   storageobs
e163    -230.26895006021508    1.0   storageobs
e164    -230.01030333136291    1.0   storageobs
e165    -229.75165660251062    1.0   storageobs
e166    -232.31694179107109    1.0   storageobs
e167    -231.97322171838425    1.0   storageobs
e168    -231.62950164569742    1.0   storageobs
e169    -231.28578157301058    1.0   storageobs
e170    -230.94206150032377    1.0   storageobs
e171    -230.59834142763694    1.0   storageobs
e172    -230.2546213549501    1.0   storageobs
e173    -229.91090128226327    1.0   storageobs
e174    -229.56718120957643    1.0   storageobs
e175    -229.22346113688963    1.0   storageobs
e176    -228.87974106420279    1.0   storageobs
e177    -228.53602099151595    1.0   storageobs
e178    -228.19230091882912    1.0   storageobs
e179    -227.84858084614228    1.0   storageobs
e180    -227.50486077345545    1.0   storageobs
e181    -227.16114070076861    1.0   storageobs
e182    -226.81742062808178    1.0   storageobs
e183    -226.47370055539497    1.0   storageobs
e184    -226.12998048270813    1.0   storageobs
e185    -225.7862604100213    1.0   storageobs
e186    -225.44254033733446    1.0   storageobs
e187    -225.09882026464763    1.0   storageobs
e188    -224.75510019196082    1.0   storageobs
e189    -224.41138011927399    1.0   storageobs
e190    -224.06766004658715    1.0   storageobs
e191    -223.72393997390031    1.0   storageobs
e192    -223.38021990121348    1.0   storageobs
e193    -223.03649982852664    1.0   storageobs
e194    -222.69277975583981    1.0   storageobs
e195    -222.34905968315297    1.0   storageobs
e196    -222.00533961046614    1.0   storageobs
e197    -221.66161953777933    1.0   storageobs
e198    -221.31789946509249    1.0   storageobs
e199    -220.97417939240566    1.0   storageobs
e200    -220.63045931971882    1.0   storageobs
e201    -220.28673924703199    1.0   storageobs
e202    -219.94301917434518    1.0   storageobs
e203    -219.59929910165835    1.0   storageobs
e204    -219.25557902897151    1.0   storageobs
e205    -218.91185895628468    1.0   storageobs
e206    -218.56813888359784    1.0   storageobs
e207    -218.224418810911    1.0   storageobs
e208    -217.88069873822417    1.0   storageobs
e209    -217.53697866553733    1.0   storageobs
e210    -217.1932585928505    1.0   storageobs
e211    -216.84953852016372    1.0   storageobs
e212    -216.50581844747688    1.0   storageobs
e213    -216.16209837479005    1.0   storageobs
e214    -215.81837830210321    1.0   storageobs
e215    -215.47465822941638    1.0   storageobs
e216    -215.13093815672954    1.0   storageobs
e217    -214.78721808404271    1.0   storageobs
e218    -214.4434980113559    1.0   storageobs
e219    -216.92724829611373    1.0   storageobs
e220    -216.62513721624001    1.0   storageobs
e221    -213.45306639302407    1.0   storageobs
e222    -213.06591499974047    1.0   storageobs
e223    -212.67876360645693    1.0   storageobs
e224    -212.29161221317332    1.0   storageobs
e225    -211.90446081988975    1.0   storageobs
e226    -211.51730942660618    1.0   storageobs
e227    -211.1301580333226    1.0   storageobs
e228    -210.74300664003903    1.0   storageobs
e229    -210.35585524675543    1.0   storageobs
e230    -209.96870385347188    1.0   storageobs
e231    -209.58155246018828    1.0   storageobs
e232    -209.19440106690473    1.0   storageobs
e233    -213.41803151107379    1.0   storageobs
e234    -213.27470271192681    1.0   storageobs
e235    -213.13137391277985    1.0   storageobs
e236    -212.98804511363289    1.0   storageobs
e237    -212.84471631448591    1.0   storageobs
e238    -212.70138751533892    1.0   storageobs
e239    -212.55805871619197    1.0   storageobs
e240    -212.41472991704501    1.0   storageobs
e241    -212.27140111789802    1.0   storageobs
e242    -212.12807231875104    1.0   storageobs
e243    -211.98474351960408    1.0   storageobs
e244    -211.84141472045712    1.0   storageobs
e245    -211.69808592131014    1.0   storageobs
e246    -211.55475712216315    1.0   storageobs
e247    -211.4114283230162    1.0   storageobs
e248    -211.26809952386924    1.0   storageobs
e249    -211.12477072472225    1.0   storageobs
e250    -213.46374388371621    1.0   storageobs
e251    -213.25678035078454    1.0   storageobs
e252    -213.04981681785293    1.0   storageobs
e253    -212.84285328492129    1.0   storageobs
e254    -212.63588975198965    1.0   storageobs
e255    -212.42892621905798    1.0   storageobs
e256    -212.22196268612637    1.0   storageobs
e257    -212.01499915319474    1.0   storageobs
e258    -211.80803562026313    1.0   storageobs
e259    -211.60107208733143    1.0   storageobs
e260    -211.39410855439982    1.0   storageobs
e261    -211.18714502146818    1.0   storageobs
e262    -210.98018148853654    1.0   storageobs
e263    -210.77321795560488    1.0   storageobs
e264    -210.56625442267327    1.0   storageobs
e265    -210.35929088974163    1.0   storageobs
e266    -210.15232735680999    1.0   storageobs
e267    -208.06056692406597    1.0   storageobs
e268    -207.89429884509019    1.0   storageobs
e269    -207.72803076611436    1.0   storageobs
e270    -207.56176268713858    1.0   storageobs
e271    -207.39549460816278    1.0   storageobs
e272    -207.22922652918697    1.0   storageobs
e273    -207.06295845021117    1.0   storageobs
e274    -206.89669037123539    1.0   storageobs
e275    -207.68426428988954    1.0   storageobs
e276    -207.50064137165595    1.0   storageobs
e277    -207.31701845342241    1.0   storageobs
e278    -207.13339553518881    1.0   storageobs
e279    -206.94977261695527    1.0   storageobs
e280    -206.76614969872168    1.0   storageobs
e281    -206.58252678048811    1.0   storageobs
e282    -206.39890386225451    1.0   storageobs
e283    -206.21528094402098    1.0   storageobs
e284    -206.03165802578738    1.0   storageobs
e285    -205.84803510755381    1.0   storageobs
e286    -205.66441218932027    1.0   storageobs
e287    -205.48078927108668    1.0   storageobs
e288    -205.29716635285308    1.0   storageobs
e289    -205.11354343461954    1.0   storageobs
e290    -206.04023371631249    1.0   storageobs
e291    -205.77992864857697    1.0   storageobs
e292    -205.51962358084151    1.0   storageobs
e293    -205.25931851310602    1.0   storageobs
e294    -204.99901344537057    1.0   storageobs
e295    -204.73870837763505    1.0   storageobs
e296    -202.80557105982388    1.0   storageobs
e297    -202.57631240209457    1.0   storageobs
e298    -202.3470537443653    1.0   storageobs
e299    -202.11779508663602    1.0   storageobs
e300    -201.88853642890672    1.0   storageobs
e301    -201.65927777117741    1.0   storageobs
e302    -201.43001911344814    1.0   storageobs
e303    -201.20076045571886    1.0   storageobs
e304    -200.97150179798956    1.0   storageobs
e305    -200.7422431402602    1.0   storageobs
e306    -200.51298448253095    1.0   storageobs
e307    -200.28372582480165    1.0   storageobs
e308    -200.05446716707237    1.0   storageobs
e309    -199.8252085093431    1.0   storageobs
e310    -199.59594985161377    1.0   storageobs
e311    -199.36669119388449    1.0   storageobs
e312    -199.13743253615522    1.0   storageobs
e313    -198.90817387842591    1.0   storageobs
e314    -198.67891522069664    1.0   storageobs
e315    -198.44965656296731    1.0   storageobs
e316    -198.22039790523803    1.0   storageobs
e317    -197.99113924750876    1.0   storageobs
e318    -197.76188058977945    1.0   storageobs
e319    -197.53262193205018    1.0   storageobs
e320    -197.30336327432087    1.0   storageobs
e321    -197.07410461659157    1.0   storageobs
e322    -196.84484595886229    1.0   storageobs
e323    -197.68548466567279    1.0   storageobs
e324    -197.39913928749058    1.0   storageobs
e325    -198.26294358458532    1.0   storageobs
e326    -198.02765112598357    1.0   storageobs
e327    -197.79235866738176    1.0   storageobs
e328    -200.61090499741255    1.0   storageobs
e329    -200.35547145783997    1.0   storageobs
e330    -200.10003791826733    1.0   storageobs
e331    -199.84460437869475    1.0   storageobs
e332    -199.58917083912218    1.0   storageobs
e333    -199.80759499234529    1.0   storageobs
e334    -199.55574060298605    1.0   storageobs
e335    -200.46455414565327    1.0   storageobs
e336    -200.22299708268679    1.0   storageobs
e337    -199.98144001972028    1.0   storageobs
e338    -199.73988295675383    1.0   storageobs
e339    -199.49832589378735    1.0   storageobs
e340    -199.2567688308209    1.0   storageobs
e341    -199.89915307281814    1.0   storageobs
e342    -199.72108106104966    1.0   storageobs
e343    -201.09363259866089    1.0   storageobs
e344    -200.84704942374307    1.0   storageobs
e345    -200.60046624882528    1.0   storageobs
e346    -200.35388307390741    1.0   storageobs
e347    -200.63897861878925    1.0   storageobs
e348    -200.3881405576864    1.0   storageobs
e349    -200.13730249658363    1.0   storageobs
e350    -199.88646443548078    1.0   storageobs
e351    -199.63562637437789    1.0   storageobs
e352    -199.3847883132751    1.0   storageobs
e353    -199.13395025217224    1.0   storageobs
e354    -198.88311219106944    1.0   storageobs
e355    -199.21352872203994    1.0   storageobs
e356    -199.81005493615055    1.0   storageobs
e357    -199.56274764738615    1.0   storageobs
e358    -199.31544035862171    1.0   storageobs
e359    -199.70202589828156    1.0   storageobs
e360    -199.43080228031044    1.0   storageobs
e361    -199.14265014114389    1.0   storageobs
e362    -198.87951371970217    1.0   storageobs
e363    -198.61637729826055    1.0   storageobs
e364    -198.35324087681883    1.0   storageobs
e365    -198.09010445537714    1.0   storageobs
e366    -197.82696803393546    1.0   storageobs
e367    -197.5638316124938    1.0   storageobs
e368    -197.30069519105214    1.0   storageobs
e369    -197.03755876961043    1.0   storageobs
e370    -196.77442234816871    1.0   storageobs
e371    -196.51128592672703    1.0   storageobs
e372    -196.24814950528537    1.0   storageobs
e373    -195.98501308384368    1.0   storageobs
e374    -196.10370938383477    1.0   storageobs
e375    -195.84331238377496    1.0   storageobs
e376    -195.58291538371515    1.0   storageobs
e377    -195.32251838365531    1.0   storageobs
e378    -195.06212138359552    1.0   storageobs
e379    -194.80172438353571    1.0   storageobs
e380    -194.5413273834759    1.0   storageobs
e381    -194.28093038341609    1.0   storageobs
e382    -195.1752919723117    1.0   storageobs
e383    -194.96664656301886    1.0   storageobs
e384    -194.7580011537261    1.0   storageobs
e385    -194.54935574443334    1.0   storageobs
e386    -194.34071033514056    1.0   storageobs
e387    -194.13206492584774    1.0   storageobs
e388    -193.92341951655499    1.0   storageobs
e389    -193.71477410726217    1.0   storageobs
e390    -193.50612869796944    1.0   storageobs
e391    -193.29748328867663    1.0   storageobs
e392    -193.08883787938385    1.0   storageobs
e393    -192.88019247009106    1.0   storageobs
e394    -192.6715470607983    1.0   storageobs
e395    -192.46290165150549    1.0   storageobs
e396    -192.2542562422127    1.0   storageobs
e397    -192.04561083291995    1.0   storageobs
e398    -191.83696542362713    1.0   storageobs
e399    -191.90773967617005    1.0   storageobs
e400    -191.7007416778753    1.0   storageobs
e401    -192.17683853759613    1.0   storageobs
e402    -191.99823567856023    1.0   storageobs
e403    -191.81963281952434    1.0   storageobs
e404    -191.64102996048845    1.0   storageobs
e405    -191.46242710145259    1.0   storageobs
e406    -191.2838242424167    1.0   storageobs
e407    -191.10522138338078    1.0   storageobs
e408    -190.92661852434489    1.0   storageobs
e409    -190.74801566530903    1.0   storageobs
e410    -189.87956557228907    1.0   storageobs
e411    -189.68416007051223    1.0   storageobs
e412    -189.51823962657281    1.0   storageobs
e413    -190.2207750019642    1.0   storageobs
e414    -190.00973390759171    1.0   storageobs
e415    -189.79869281321928    1.0   storageobs
e416    -189.58765171884684    1.0   storageobs
e417    -189.37661062447438    1.0   storageobs
e418    -189.80834650785931    1.0   storageobs
e419    -189.60785342151689    1.0   storageobs
e420    -189.4073603351745    1.0   storageobs
e421    -189.20686724883214    1.0   storageobs
e422    -189.00637416248975    1.0   storageobs
e423    -188.80588107614736    1.0   storageobs
e424    -188.60538798980497    1.0   storageobs
e425    -188.40489490346258    1.0   storageobs
e426    -191.06309006881634    1.0   storageobs
e427    -190.78414912813136    1.0   storageobs
e428    -190.50520818744633    1.0   storageobs
e429    -190.22626724676135    1.0   storageobs
e430    -191.62049927902657    1.0   storageobs
e431    -191.31450903427117    1.0   storageobs
e432    -191.00851878951576    1.0   storageobs
e433    -190.7025285447603    1.0   storageobs
e434    -190.39653830000492    1.0   storageobs
e435    -190.09054805524951    1.0   storageobs
e436    -189.78455781049411    1.0   storageobs
e437    -189.56896156999622    1.0   storageobs
e438    -189.23863440913604    1.0   storageobs
e439    -188.90830724827592    1.0   storageobs
e440    -188.57798008741574    1.0   storageobs
e441    -188.24765292655559    1.0   storageobs
e442    -187.91732576569544    1.0   storageobs
e443    -187.58699860483529    1.0   storageobs
e444    -187.2749758956989    1.0   storageobs
e445    -187.13155129312707    1.0   storageobs
e446    -186.65515306206035    1.0   storageobs
e447    -186.1787548309936    1.0   storageobs
e448    -185.70235659992682    1.0   storageobs
e449    -185.22595836886009    1.0   storageobs
e450    -185.30715781703407    1.0   storageobs
e451    -184.98848761990038    1.0   storageobs
e452    -184.66981742276676    1.0   storageobs
e453    -184.60154210953223    1.0   storageobs
e454    -184.27137923571468    1.0   storageobs
e455    -183.94121636189709    1.0   storageobs
e456    -183.61105348807953    1.0   storageobs
e457    -183.28089061426192    1.0   storageobs
e458    -182.95072774044436    1.0   storageobs
e459    -182.62056486662678    1.0   storageobs
e460    -182.29040199280919    1.0   storageobs
e461    -181.96023911899164    1.0   storageobs
e462    -181.63007624517405    1.0   storageobs
e463    -181.29991337135647    1.0   storageobs
e464    -180.44953757935176    1.0   storageobs
e465    -180.13512067124233    1.0   storageobs
e466    -179.66376414353175    1.0   storageobs
e467    -179.04064452610885    1.0   storageobs
e468    -178.72924680810885    1.0   storageobs
e469    -178.41784909010892    1.0   storageobs
e470    -178.37572968358444    1.0   storageobs
e471    -178.06564787529877    1.0   storageobs
e472    -177.75556606701315    1.0   storageobs
e473    -177.44548425872745    1.0   storageobs
e474    -177.45549329448679    1.0   storageobs
e475    -177.4838998405445    1.0   storageobs
e476    -177.09991255932633    1.0   storageobs
e477    -176.71592527810816    1.0   storageobs
e478    -176.18890971629884    1.0   storageobs
e479    -176.47657050420568    1.0   storageobs
e480    -176.09216520314001    1.0   storageobs
e481    -175.7077599020744    1.0   storageobs
e482    -175.32335460100873    1.0   storageobs
e483    -174.93894929994312    1.0   storageobs
e484    -174.55454399887748    1.0   storageobs
e485    -174.17013869781181    1.0   storageobs
e486    -174.68776412706481    1.0   storageobs
e487    -175.92823871629935    1.0   storageobs
e488    -175.19703097544974    1.0   storageobs
e489    -174.46582323460018    1.0   storageobs
e490    -173.62122983144573    1.0   storageobs
e491    -172.85656079265766    1.0   storageobs
e492    -172.09189175386956    1.0   storageobs
e493    -171.32722271508146    1.0   storageobs
e494    -172.28845834235881    1.0   storageobs
e495    -171.96286846563413    1.0   storageobs
e496    -171.62479410718819    1.0   storageobs
e497    -171.28671974874226    1.0   storageobs
e498    -172.66674091192769    1.0   storageobs
e499    -171.74906159799608    1.0   storageobs
e500    -171.34478968264216    1.0   storageobs
e501    -171.15246331825222    1.0   storageobs
e502    -170.86074632451584    1.0   storageobs
e503    -170.5690293307795    1.0   storageobs
e504    -170.27731233704318    1.0   storageobs
e505    -169.88339001148651    1.0   storageobs
e506    -169.59951033205837    1.0   storageobs
e507    -169.31563065263029    1.0   storageobs
e508    -169.03175097320218    1.0   storageobs
e509    -168.74787129377407    1.0   storageobs
e510    -168.46399161434596    1.0   storageobs
e511    -168.18011193491785    1.0   storageobs
e512    -168.15753427698615    1.0   storageobs
e513    -167.87681026895942    1.0   storageobs
e514    -167.59608626093262    1.0   storageobs
e515    -167.31536225290589    1.0   storageobs
e516    -167.03463824487909    1.0   storageobs
e517    -166.75391423685232    1.0   storageobs
e518    -166.65347472237937    1.0   storageobs
e519    -166.35633574958865    1.0   storageobs
e520    -166.05919677679796    1.0   storageobs
e521    -165.76205780400721    1.0   storageobs
e522    -165.96920560829486    1.0   storageobs
e523    -165.68147534687731    1.0   storageobs
e524    -165.3937450854597    1.0   storageobs
e525    -165.6502865892115    1.0   storageobs
e526    -165.34705352618997    1.0   storageobs
e527    -165.04382046316843    1.0   storageobs
e528    -164.80806120871569    1.0   storageobs
e529    -164.46710639992966    1.0   storageobs
e530    -164.12615159114364    1.0   storageobs
e531    -163.78519678235764    1.0   storageobs
e532    -163.44424197357159    1.0   storageobs
e533    -161.33247047919116    1.0   storageobs
e534    -160.95937887335609    1.0   storageobs
e535    -160.63012052380159    1.0   storageobs
e536    -160.32033990282187    1.0   storageobs
e537    -159.98279623825064    1.0   storageobs
e538    -159.62667308338516    1.0   storageobs
e539    -160.31606133210752    1.0   storageobs
e540    -159.9047850541177    1.0   storageobs
e541    -158.91886518872337    1.0   storageobs
e542    -158.57275688967516    1.0   storageobs
e543    -158.22664859062692    1.0   storageobs
e544    -157.88054029157871    1.0   storageobs
e545    -157.5344319925305    1.0   storageobs
e546    -157.18832369348232    1.0   storageobs
e547    -156.84221539443411    1.0   storageobs
e548    -156.4961070953859    1.0   storageobs
e549    -158.36798085211066    1.0   storageobs
e550    -158.05125194944091    1.0   storageobs
e551    -163.27934709795895    1.0   storageobs
e552    -162.81773413666073    1.0   storageobs
e553    -162.35612117536246    1.0   storageobs
e554    -161.89450821406425    1.0   storageobs
e555    -161.432895252766    1.0   storageobs
e556    -160.97128229146776    1.0   storageobs
e557    -161.87348563833038    1.0   storageobs
e558    -161.42645858879001    1.0   storageobs
e559    -160.97943153924967    1.0   storageobs
e560    -160.53240448970934    1.0   storageobs
e561    -160.08537744016903    1.0   storageobs
e562    -159.63835039062869    1.0   storageobs
e563    -159.19132334108832    1.0   storageobs
e564    -158.74429629154798    1.0   storageobs
e565    -158.01060408479913    1.0   storageobs
e566    -157.53209029009392    1.0   storageobs
e567    -157.05357649538871    1.0   storageobs
e568    -156.5750627006835    1.0   storageobs
e569    -156.09654890597832    1.0   storageobs
e570    -159.11648820883437    1.0   storageobs
e571    -158.38146246835777    1.0   storageobs
e572    -157.64643672788117    1.0   storageobs
e573    -156.91141098740459    1.0   storageobs
e574    -156.17638524692799    1.0   storageobs
e575    -154.83946228939695    1.0   storageobs
e576    -154.00546747306092    1.0   storageobs
e577    -153.17147265672489    1.0   storageobs
e578    -152.33747784038883    1.0   storageobs
e579    -151.29916561994887    1.0   storageobs
e580    -150.49102790242924    1.0   storageobs
e581    -149.68289018490955    1.0   storageobs
e582    -149.36595239745037    1.0   storageobs
e583    -147.74870978113097    1.0   storageobs
e584    -146.89218290468165    1.0   storageobs
e585    -146.03565602823235    1.0   storageobs
e586    -145.17912915178306    1.0   storageobs
e587    -144.32260227533374    1.0   storageobs
e588    -143.46607539888444    1.0   storageobs
e589    -142.11243542432496    1.0   storageobs
e590    -141.18562904978376    1.0   storageobs
e591    -139.9761802431531    1.0   storageobs
e592    -139.01025797576617    1.0   storageobs
e593    -140.86775368684118    1.0   storageobs
e594    -138.37836864528637    1.0   storageobs
e595    -137.25101238633351    1.0   storageobs
e596    -136.1236561273806    1.0   storageobs
e597    -134.99629986842774    1.0   storageobs
e598    -133.86894360947488    1.0   storageobs
e599    -132.741587350522    1.0   storageobs
e600    -132.28653268536129    1.0   storageobs
e601    -133.88925073302005    1.0   storageobs
e602    -132.94168773764011    1.0   storageobs
e603    -131.31953534563198    1.0   storageobs
e604    -130.42223803318714    1.0   storageobs
e605    -129.52494072074231    1.0   storageobs
e606    -128.62764340829744    1.0   storageobs
e607    -127.73034609585264    1.0   storageobs
e608    -126.83304878340775    1.0   storageobs
e609    -128.97049425215371    1.0   storageobs
e610    -128.42176813748637    1.0   storageobs
e611    -127.87304202281904    1.0   storageobs
e612    -126.25752106822132    1.0   storageobs
e613    -125.67278754098238    1.0   storageobs
e614    -125.08805401374343    1.0   storageobs
e615    -124.50332048650448    1.0   storageobs
e616    -123.91858695926551    1.0   storageobs