pcf
* control data
restart  estimation
    3   689     1     0     1
    1     1 double point   1   0   0
   5.0  2.0   0.3  0.03    10
  3.0   3.0 0.001  0
  0.1
   30  0.01     4     3  0.01     3
    1     1     1
* parameter groups
sy_knot      relative 0.01  0.0  switch  2.0 parabolic
* parameter data
sy_knot_1   none relative   0.1500000      0.01  1    sy_knot    1.0  0.0 1
sy_knot_2   none relative   0.2500000      0.01  1    sy_knot    1.0  0.0 1
sy_knot_3   none relative   0.4500000      0.01  1    sy_knot    1.0  0.0 1
* observation groups
storageobs
* observation data
e1    -140.8843224893609    1.0   storageobs
e2    -140.75188041372257    1.0   storageobs
e3    -140.61943833808425    1.0   storageobs
e4    -140.48699626244598    1.0   storageobs
e5    -140.35455418680766    1.0   storageobs
e6    -140.22211211116934    1.0   storageobs
e7    -140.08967003553104    1.0   storageobs
e8    -139.95722795989275    1.0   storageobs
e9    -139.82478588425442    1.0   storageobs
e10    -139.69234380861613    1.0   storageobs
e11    -139.55990173297783    1.0   storageobs
e12    -139.42745965733951    1.0   storageobs
e13    -139.29501758170125    1.0   storageobs
e14    -139.16257550606292    1.0   storageobs
e15    -139.0301334304246    1.0   storageobs
e16    -138.8976913547863    1.0   storageobs
e17    -138.76524927914801    1.0   storageobs
e18    -138.63280720350969    1.0   storageobs
e19    -138.50036512787139    1.0   storageobs
e20    -138.3679230522331    1.0   storageobs
e21    -138.23548097659477    1.0   storageobs
e22    -138.10303890095648    1.0   storageobs
e23    -137.97059682531818    1.0   storageobs
e24    -137.83815474967986    1.0   storageobs
e25    -137.70571267404156    1.0   storageobs
e26    -137.57327059840327    1.0   storageobs
e27    -137.44082852276495    1.0   storageobs
e28    -137.30838644712662    1.0   storageobs
e29    -137.17594437148836    1.0   storageobs
e30    -137.04350229585003    1.0   storageobs
e31    -136.91106022021174    1.0   storageobs
e32    -136.77861814457344    1.0   storageobs
e33    -136.64617606893512    1.0   storageobs
e34    -136.51373399329682    1.0   storageobs
e35    -136.38129191765853    1.0   storageobs
e36    -136.24884984202021    1.0   storageobs
e37    -136.11640776638188    1.0   storageobs
e38    -135.98396569074362    1.0   storageobs
e39    -135.85152361510529    1.0   storageobs
e40    -135.71908153946697    1.0   storageobs
e41    -135.58663946382867    1.0   storageobs
e42    -135.45419738819038    1.0   storageobs
e43    -135.32175531255206    1.0   storageobs
e44    -135.18931323691376    1.0   storageobs
e45    -135.05687116127547    1.0   storageobs
e46    -134.92442908563714    1.0   storageobs
e47    -134.79198700999885    1.0   storageobs
e48    -134.65954493436055    1.0   storageobs
e49    -134.52710285872223    1.0   storageobs
e50    -134.39466078308394    1.0   storageobs
e51    -134.26221870744564    1.0   storageobs
e52    -134.12977663180732    1.0   storageobs
e53    -133.99733455616902    1.0   storageobs
e54    -133.86489248053073    1.0   storageobs
e55    -133.7324504048924    1.0   storageobs
e56    -133.60000832925411    1.0   storageobs
e57    -133.46756625361581    1.0   storageobs
e58    -133.33512417797749    1.0   storageobs
e59    -135.23717759051121    1.0   storageobs
e60    -135.0423022484822    1.0   storageobs
e61    -134.84742690645317    1.0   storageobs
e62    -134.65255156442413    1.0   storageobs
e63    -134.45767622239512    1.0   storageobs
e64    -134.16210298556851    1.0   storageobs
e65    -133.96413492224485    1.0   storageobs
e66    -133.7661668589212    1.0   storageobs
e67    -133.56819879559754    1.0   storageobs
e68    -133.37023073227391    1.0   storageobs
e69    -133.17226266895028    1.0   storageobs
e70    -134.47051286824103    1.0   storageobs
e71    -134.24026517001224    1.0   storageobs
e72    -134.01001747178339    1.0   storageobs
e73    -133.77976977355456    1.0   storageobs
e74    -133.54952207532574    1.0   storageobs
e75    -133.31927437709686    1.0   storageobs
e76    -133.08902667886807    1.0   storageobs
e77    -132.85877898063919    1.0   storageobs
e78    -132.62853128241036    1.0   storageobs
e79    -132.39828358418154    1.0   storageobs
e80    -132.16803588595269    1.0   storageobs
e81    -131.93778818772387    1.0   storageobs
e82    -131.70754048949502    1.0   storageobs
e83    -131.47729279126619    1.0   storageobs
e84    -131.24704509303737    1.0   storageobs
e85    -131.01679739480852    1.0   storageobs
e86    -130.7865496965797    1.0   storageobs
e87    -130.35280976921902    1.0   storageobs
e88    -130.13973321843895    1.0   storageobs
e89    -129.9266566676589    1.0   storageobs
e90    -129.71358011687883    1.0   storageobs
e91    -129.50050356609879    1.0   storageobs
e92    -129.28742701531877    1.0   storageobs
e93    -129.0743504645387    1.0   storageobs
e94    -128.86127391375865    1.0   storageobs
e95    -128.64819736297858    1.0   storageobs
e96    -128.43512081219853    1.0   storageobs
e97    -128.22204426141849    1.0   storageobs
e98    -128.00896771063842    1.0   storageobs
e99    -129.2062432796674    1.0   storageobs
e100    -128.89405587112839    1.0   storageobs
e101    -128.5818684625894    1.0   storageobs
e102    -128.26968105405038    1.0   storageobs
e103    -127.95749364551135    1.0   storageobs
e104    -127.64530623697233    1.0   storageobs
e105    -127.33311882843336    1.0   storageobs
e106    -127.02093141989434    1.0   storageobs
e107    -126.44127415027472    1.0   storageobs
e108    -126.10032800138698    1.0   storageobs
e109    -125.75938185249925    1.0   storageobs
e110    -125.41843570361151    1.0   storageobs
e111    -125.07748955472377    1.0   storageobs
e112    -123.71455889308871    1.0   storageobs
e113    -123.40564410769093    1.0   storageobs
e114    -123.09672932229316    1.0   storageobs
e115    -122.32172150731159    1.0   storageobs
e116    -121.4423369010362    1.0   storageobs
e117    -121.13560453372816    1.0   storageobs
e118    -120.82887216642008    1.0   storageobs
e119    -120.52213979911204    1.0   storageobs
e120    -120.21540743180398    1.0   storageobs
e121    -119.90867506449594    1.0   storageobs
e122    -119.60194269718787    1.0   storageobs
e123    -119.35985629429317    1.0   storageobs
e124    -119.0549824280569    1.0   storageobs
e125    -118.75010856182061    1.0   storageobs
e126    -118.44523469558432    1.0   storageobs
e127    -118.14036082934804    1.0   storageobs
e128    -119.31431062064371    1.0   storageobs
e129    -118.90458731107668    1.0   storageobs
e130    -118.4948640015097    1.0   storageobs
e131    -118.08514069194271    1.0   storageobs
e132    -119.36020336639747    1.0   storageobs
e133    -119.03565721444258    1.0   storageobs
e134    -118.71111106248767    1.0   storageobs
e135    -118.38656491053278    1.0   storageobs
e136    -118.06201875857786    1.0   storageobs
e137    -117.73747260662299    1.0   storageobs
e138    -117.41292645466807    1.0   storageobs
e139    -118.52433319372507    1.0   storageobs
e140    -118.19241273799081    1.0   storageobs
e141    -117.88084080146668    1.0   storageobs
e142    -117.56926886494256    1.0   storageobs
e143    -117.25769692841843    1.0   storageobs
e144    -116.94612499189429    1.0   storageobs
e145    -116.51214137977419    1.0   storageobs
e146    -116.21732087633674    1.0   storageobs
e147    -115.92250037289928    1.0   storageobs
e148    -115.10474846552732    1.0   storageobs
e149    -114.83379692645849    1.0   storageobs
e150    -115.56859501213235    1.0   storageobs
e151    -115.38491526044484    1.0   storageobs
e152    -115.20123550875735    1.0   storageobs
e153    -115.01755575706984    1.0   storageobs
e154    -114.83387600538234    1.0   storageobs
e155    -114.65019625369484    1.0   storageobs
e156    -114.46651650200734    1.0   storageobs
e157    -114.28283675031985    1.0   storageobs
e158    -114.43568256997418    1.0   storageobs
e159    -114.21171862373029    1.0   storageobs
e160    -113.69178295823379    1.0   storageobs
e161    -113.46082340988337    1.0   storageobs
e162    -113.22986386153298    1.0   storageobs
e163    -112.73573620464676    1.0   storageobs
e164    -112.52110246688271    1.0   storageobs
e165    -112.30646872911866    1.0   storageobs
e166    -112.09183499135465    1.0   storageobs
e167    -111.8772012535906    1.0   storageobs
e168    -110.98585802783555    1.0   storageobs
e169    -110.78696675661938    1.0   storageobs
e170    -110.58807548540319    1.0   storageobs
e171    -111.11589450337833    1.0   storageobs
e172    -110.93452637775657    1.0   storageobs
e173    -110.75315825213482    1.0   storageobs
e174    -110.57179012651308    1.0   storageobs
e175    -110.39042200089133    1.0   storageobs
e176    -110.20905387526956    1.0   storageobs
e177    -110.02768574964783    1.0   storageobs
e178    -110.30446734170471    1.0   storageobs
e179    -110.16764299270157    1.0   storageobs
e180    -110.0308186436984    1.0   storageobs
e181    -109.89399429469526    1.0   storageobs
e182    -109.75716994569208    1.0   storageobs
e183    -109.54095069907858    1.0   storageobs
e184    -109.41121067941805    1.0   storageobs
e185    -109.28147065975755    1.0   storageobs
e186    -109.15173064009701    1.0   storageobs
e187    -109.0219906204365    1.0   storageobs
e188    -108.89225060077597    1.0   storageobs
e189    -108.76251058111546    1.0   storageobs
e190    -108.78222953640754    1.0   storageobs
e191    -108.66148221224941    1.0   storageobs
e192    -108.54073488809129    1.0   storageobs
e193    -108.41998756393316    1.0   storageobs
e194    -108.299240239775    1.0   storageobs
e195    -108.1784929156169    1.0   storageobs
e196    -108.05774559145875    1.0   storageobs
e197    -107.93699826730065    1.0   storageobs
e198    -107.81625094314249    1.0   storageobs
e199    -107.69550361898439    1.0   storageobs
e200    -107.57475629482624    1.0   storageobs
e201    -107.45400897066811    1.0   storageobs
e202    -107.33326164650998    1.0   storageobs
e203    -107.21251432235185    1.0   storageobs
e204    -107.09176699819372    1.0   storageobs
e205    -106.9710196740356    1.0   storageobs
e206    -106.85027234987744    1.0   storageobs
e207    -106.72952502571934    1.0   storageobs
e208    -106.32868592304537    1.0   storageobs
e209    -106.20481004302184    1.0   storageobs
e210    -106.08093416299829    1.0   storageobs
e211    -105.9570582829748    1.0   storageobs
e212    -105.83318240295127    1.0   storageobs
e213    -105.70930652292773    1.0   storageobs
e214    -105.5854306429042    1.0   storageobs
e215    -105.46155476288067    1.0   storageobs
e216    -105.33767888285718    1.0   storageobs
e217    -105.21380300283363    1.0   storageobs
e218    -104.81636859256568    1.0   storageobs
e219    -104.67389542449413    1.0   storageobs
e220    -104.54254546982932    1.0   storageobs
e221    -105.15341450960491    1.0   storageobs
e222    -108.26095341744714    1.0   storageobs
e223    -107.95872602992331    1.0   storageobs
e224    -107.65649864239953    1.0   storageobs
e225    -107.95346577067976    1.0   storageobs
e226    -107.65212139917519    1.0   storageobs
e227    -107.79358053644199    1.0   storageobs
e228    -107.58807571665839    1.0   storageobs
e229    -107.38257089687484    1.0   storageobs
e230    -107.17706607709127    1.0   storageobs
e231    -107.7713658307417    1.0   storageobs
e232    -107.44059802880751    1.0   storageobs
e233    -107.24059670843374    1.0   storageobs
e234    -106.88264179892954    1.0   storageobs
e235    -106.52468688942531    1.0   storageobs
e236    -106.16673197992111    1.0   storageobs
e237    -105.80877707041688    1.0   storageobs
e238    -105.45082216091268    1.0   storageobs
e239    -105.09286725140846    1.0   storageobs
e240    -104.73491234190426    1.0   storageobs
e241    -105.23696797840005    1.0   storageobs
e242    -105.02842652817642    1.0   storageobs
e243    -104.81988507795282    1.0   storageobs
e244    -104.6518758909326    1.0   storageobs
e245    -104.45085554414594    1.0   storageobs
e246    -104.24983519735923    1.0   storageobs
e247    -104.04881485057257    1.0   storageobs
e248    -103.84779450378591    1.0   storageobs
e249    -103.64677415699921    1.0   storageobs
e250    -103.44575381021251    1.0   storageobs
e251    -104.90658127481458    1.0   storageobs
e252    -104.71699195144376    1.0   storageobs
e253    -104.52740262807296    1.0   storageobs
e254    -104.33781330470215    1.0   storageobs
e255    -104.14822398133136    1.0   storageobs
e256    -103.95863465796053    1.0   storageobs
e257    -103.76904533458972    1.0   storageobs
e258    -103.57945601121892    1.0   storageobs
e259    -103.3898666878481    1.0   storageobs
e260    -103.20027736447727    1.0   storageobs
e261    -103.01068804110646    1.0   storageobs
e262    -102.82109871773567    1.0   storageobs
e263    -102.63150939436484    1.0   storageobs
e264    -102.44192007099404    1.0   storageobs
e265    -102.23423383489209    1.0   storageobs
e266    -102.03755784363756    1.0   storageobs
e267    -101.31645847447167    1.0   storageobs
e268    -102.93580652771496    1.0   storageobs
e269    -103.35722615157781    1.0   storageobs
e270    -103.15700522849683    1.0   storageobs
e271    -103.05251378505618    1.0   storageobs
e272    -102.75656338233482    1.0   storageobs
e273    -102.46061297961347    1.0   storageobs
e274    -102.35612153617284    1.0   storageobs
e275    -102.31526760013993    1.0   storageobs
e276    -102.10689010215911    1.0   storageobs
e277    -101.89851260417831    1.0   storageobs
e278    -101.6901351061975    1.0   storageobs
e279    -101.48175760821668    1.0   storageobs
e280    -101.27338011023588    1.0   storageobs
e281    -101.06500261225507    1.0   storageobs
e282    -100.85662511427427    1.0   storageobs
e283    -100.64824761629346    1.0   storageobs
e284    -100.43987011831265    1.0   storageobs
e285    -100.23149262033185    1.0   storageobs
e286    -100.02311512235103    1.0   storageobs
e287    -99.814737624370238    1.0   storageobs
e288    -99.606360126389418    1.0   storageobs
e289    -99.397982628408627    1.0   storageobs
e290    -99.189605130427822    1.0   storageobs
e291    -99.07518484195144    1.0   storageobs
e292    -98.878192370615039    1.0   storageobs
e293    -99.43634203426096    1.0   storageobs
e294    -99.253121670923832    1.0   storageobs
e295    -99.27368504129042    1.0   storageobs
e296    -99.096113059327649    1.0   storageobs
e297    -98.918541077364921    1.0   storageobs
e298    -98.740969095402193    1.0   storageobs
e299    -98.56339711343945    1.0   storageobs
e300    -98.385825131476693    1.0   storageobs
e301    -98.208253149513965    1.0   storageobs
e302    -98.030681167551236    1.0   storageobs
e303    -97.853109185588494    1.0   storageobs
e304    -97.675537203625723    1.0   storageobs
e305    -97.011812656736609    1.0   storageobs
e306    -96.848356167471337    1.0   storageobs
e307    -96.684899678206051    1.0   storageobs
e308    -96.521443188940751    1.0   storageobs
e309    -96.35798669967545    1.0   storageobs
e310    -98.883925940997045    1.0   storageobs
e311    -98.642933092314806    1.0   storageobs
e312    -99.313626229197411    1.0   storageobs
e313    -99.052054501342795    1.0   storageobs
e314    -98.790482773488193    1.0   storageobs
e315    -98.528911045633592    1.0   storageobs
e316    -98.472499330391813    1.0   storageobs
e317    -98.209053649395017    1.0   storageobs
e318    -97.945607968398178    1.0   storageobs
e319    -98.078215051667058    1.0   storageobs
e320    -97.707804573757457    1.0   storageobs
e321    -97.416605543497653    1.0   storageobs
e322    -97.025567100843389    1.0   storageobs
e323    -96.746617390592831    1.0   storageobs
e324    -96.467667680342331    1.0   storageobs
e325    -96.188717970091844    1.0   storageobs
e326    -95.673025489090108    1.0   storageobs
e327    -95.409914428059636    1.0   storageobs
e328    -99.75540465112752    1.0   storageobs
e329    -99.38850737174721    1.0   storageobs
e330    -99.021610092366899    1.0   storageobs
e331    -98.591350241831648    1.0   storageobs
e332    -98.226962731855707    1.0   storageobs
e333    -97.862575221879766    1.0   storageobs
e334    -97.498187711903867    1.0   storageobs
e335    -97.133800201927926    1.0   storageobs
e336    -96.198390339001307    1.0   storageobs
e337    -95.489658511049228    1.0   storageobs
e338    -95.030061462647907    1.0   storageobs
e339    -94.716666104846269    1.0   storageobs
e340    -94.403270747044587    1.0   storageobs
e341    -94.089875389242906    1.0   storageobs
e342    -93.776480031441267    1.0   storageobs
e343    -93.427114820041851    1.0   storageobs
e344    -93.103404047801376    1.0   storageobs
e345    -92.779693275560916    1.0   storageobs
e346    -92.455982503320456    1.0   storageobs
e347    -92.132271731079982    1.0   storageobs
e348    -92.027371910689538    1.0   storageobs
e349    -91.705192511126086    1.0   storageobs
e350    -91.38301311156259    1.0   storageobs
e351    -91.060833711999123    1.0   storageobs
e352    -90.738654312435642    1.0   storageobs
e353    -90.416474912872147    1.0   storageobs
e354    -90.094295513308708    1.0   storageobs
e355    -89.772116113745199    1.0   storageobs
e356    -89.384733884385582    1.0   storageobs
e357    -89.077405069866728    1.0   storageobs
e358    -88.770076255347846    1.0   storageobs
e359    -88.459860334763277    1.0   storageobs
e360    -88.071901963076485    1.0   storageobs
e361    -87.754046353743462    1.0   storageobs
e362    -87.596688625841523    1.0   storageobs
e363    -87.292863831155117    1.0   storageobs
e364    -86.982426551940236    1.0   storageobs
e365    -86.671989272725369    1.0   storageobs
e366    -86.361551993510474    1.0   storageobs
e367    -88.927557908871037    1.0   storageobs
e368    -88.701510970511521    1.0   storageobs
e369    -88.475464032151976    1.0   storageobs
e370    -88.249417093792488    1.0   storageobs
e371    -88.023370155432971    1.0   storageobs
e372    -87.797323217073455    1.0   storageobs
e373    -87.571276278713924    1.0   storageobs
e374    -89.155013100814003    1.0   storageobs
e375    -88.980847059695449    1.0   storageobs
e376    -88.806681018576882    1.0   storageobs
e377    -88.632514977458328    1.0   storageobs
e378    -88.458348936339718    1.0   storageobs
e379    -89.081815153944191    1.0   storageobs
e380    -88.536499691286352    1.0   storageobs
e381    -88.046081622670329    1.0   storageobs
e382    -87.936474910280339    1.0   storageobs
e383    -87.826868197890334    1.0   storageobs
e384    -87.717261485500316    1.0   storageobs
e385    -87.60765477311034    1.0   storageobs
e386    -87.661573029476941    1.0   storageobs
e387    -87.486556329584332    1.0   storageobs
e388    -87.311539629691666    1.0   storageobs
e389    -87.136522929799028    1.0   storageobs
e390    -86.961506229906377    1.0   storageobs
e391    -86.786489530013739    1.0   storageobs
e392    -86.843982277261304    1.0   storageobs
e393    -86.821593823164932    1.0   storageobs
e394    -86.475291545290361    1.0   storageobs
e395    -86.374317976395034    1.0   storageobs
e396    -86.273344407499721    1.0   storageobs
e397    -86.190964449904854    1.0   storageobs
e398    -85.893709750773098    1.0   storageobs
e399    -85.791671128004282    1.0   storageobs
e400    -86.175275209229284    1.0   storageobs
e401    -86.090882717486451    1.0   storageobs
e402    -86.006490225743605    1.0   storageobs
e403    -85.922097734000772    1.0   storageobs
e404    -87.451376192933211    1.0   storageobs
e405    -87.360598613049532    1.0   storageobs
e406    -86.214682645223988    1.0   storageobs
e407    -85.172210849068478    1.0   storageobs
e408    -85.085363581775553    1.0   storageobs
e409    -84.50755074421447    1.0   storageobs
e410    -83.929737906653358    1.0   storageobs
e411    -85.901073312302771    1.0   storageobs
e412    -86.076002420906065    1.0   storageobs
e413    -85.938547746017164    1.0   storageobs
e414    -85.777115124884645    1.0   storageobs
e415    -85.645427542425921    1.0   storageobs
e416    -85.65430393457244    1.0   storageobs
e417    -86.007481989395728    1.0   storageobs
e418    -86.043015432717155    1.0   storageobs
e419    -86.925543684063825    1.0   storageobs
e420    -86.720310344231336    1.0   storageobs
e421    -86.484452403392055    1.0   storageobs
e422    -86.432917881147915    1.0   storageobs
e423    -86.21075028220892    1.0   storageobs
e424    -85.988582683269954    1.0   storageobs
e425    -85.500112906873497    1.0   storageobs
e426    -85.279966847237574    1.0   storageobs
e427    -85.059820787601581    1.0   storageobs
e428    -84.839674727965658    1.0   storageobs
e429    -84.574887849657699    1.0   storageobs
e430    -84.358128306161646    1.0   storageobs
e431    -84.690129918875087    1.0   storageobs
e432    -84.459300575974424    1.0   storageobs
e433    -84.604059207358688    1.0   storageobs
e434    -84.398139007254159    1.0   storageobs
e435    -84.192218807149644    1.0   storageobs
e436    -84.685152514333083    1.0   storageobs
e437    -84.472708804384212    1.0   storageobs
e438    -84.640183201266055    1.0   storageobs
e439    -83.984443010351697    1.0   storageobs
e440    -84.740772416367449    1.0   storageobs
e441    -84.438948218235112    1.0   storageobs
e442    -84.316002426124797    1.0   storageobs
e443    -83.999582689829111    1.0   storageobs
e444    -83.679424596154135    1.0   storageobs
e445    -83.454576612772485    1.0   storageobs
e446    -83.404983965130427    1.0   storageobs
e447    -83.131123533700077    1.0   storageobs
e448    -82.841776543443316    1.0   storageobs
e449    -82.499974427886315    1.0   storageobs
e450    -82.298663119492645    1.0   storageobs
e451    -81.994413186453301    1.0   storageobs
e452    -81.692561506615348    1.0   storageobs
e453    -81.477365506757693    1.0   storageobs
e454    -81.291377675699664    1.0   storageobs
e455    -81.286510904433186    1.0   storageobs
e456    -80.847489022337626    1.0   storageobs
e457    -80.367815146669258    1.0   storageobs
e458    -80.001448507767904    1.0   storageobs
e459    -79.635081868866493    1.0   storageobs
e460    -79.807139553097912    1.0   storageobs
e461    -79.316931538767818    1.0   storageobs
e462    -78.826723524437753    1.0   storageobs
e463    -79.218263236051968    1.0   storageobs
e464    -79.010007448925137    1.0   storageobs
e465    -78.687060718260696    1.0   storageobs
e466    -78.234625872898448    1.0   storageobs
e467    -78.068992186771197    1.0   storageobs
e468    -77.600821760959491    1.0   storageobs
e469    -77.132651335147813    1.0   storageobs
e470    -76.456746142020933    1.0   storageobs
e471    -76.7079321806835    1.0   storageobs
e472    -76.285082677178295    1.0   storageobs
e473    -75.942545468681004    1.0   storageobs
e474    -75.71626910603419    1.0   storageobs
e475    -75.242371226120795    1.0   storageobs
e476    -74.917913839373156    1.0   storageobs
e477    -74.593456452625546    1.0   storageobs
e478    -74.799017652390489    1.0   storageobs
e479    -74.261274322446226    1.0   storageobs
e480    -73.723530992501978    1.0   storageobs
e481    -73.185787662557701    1.0   storageobs
e482    -72.618654802690358    1.0   storageobs
e483    -71.832848470606081    1.0   storageobs
e484    -71.888022918277656    1.0   storageobs
e485    -71.528585264307338    1.0   storageobs
e486    -71.094003438471148    1.0   storageobs
e487    -69.957261980395913    1.0   storageobs
e488    -69.574989538831687    1.0   storageobs
e489    -68.459309037101619    1.0   storageobs
e490    -68.053769234084257    1.0   storageobs
e491    -66.9137721054948    1.0   storageobs
e492    -66.476616405718801    1.0   storageobs
e493    -66.03946070594283    1.0   storageobs
e494    -65.524717265654644    1.0   storageobs
e495    -65.136442574487177    1.0   storageobs
e496    -65.016880220628366    1.0   storageobs
e497    -64.572718626041194    1.0   storageobs
e498    -64.128557031454037    1.0   storageobs
e499    -64.03665294965495    1.0   storageobs
e500    -63.61668567222592    1.0   storageobs
e501    -63.196718394796903    1.0   storageobs
e502    -63.457242459154607    1.0   storageobs
e503    -63.797769101255319    1.0   storageobs
e504    -63.242659438137977    1.0   storageobs
e505    -62.687549775020628    1.0   storageobs
e506    -62.383441156080522    1.0   storageobs
e507    -61.552862488219596    1.0   storageobs
e508    -59.694629476572103    1.0   storageobs
e509    -59.524479589578121    1.0   storageobs
e510    -58.961330311512356    1.0   storageobs
e511    -57.749731362402272    1.0   storageobs
e512    -57.218730656764897    1.0   storageobs
e513    -56.353856524714757    1.0   storageobs
e514    -56.883226482137161    1.0   storageobs
e515    -55.554894911979638    1.0   storageobs
e516    -55.174130189761286    1.0   storageobs
e517    -54.069646392404991    1.0   storageobs
e518    -53.667293981685162    1.0   storageobs
e519    -54.429039682765996    1.0   storageobs
e520    -53.846412463140666    1.0   storageobs
e521    -53.263785243515336    1.0   storageobs
e522    -52.681158023890013    1.0   storageobs
e523    -53.611773174936424    1.0   storageobs
e524    -53.347593009944433    1.0   storageobs
e525    -53.023505808524931    1.0   storageobs
e526    -51.287984911941436    1.0   storageobs
e527    -52.063733356221313    1.0   storageobs
e528    -50.260275523399564    1.0   storageobs
e529    -49.524835145733007    1.0   storageobs
e530    -48.789394768066472    1.0   storageobs
e531    -48.053954390399923    1.0   storageobs
e532    -47.579369652932144    1.0   storageobs
e533    -46.831255689538324    1.0   storageobs
e534    -48.407637053983393    1.0   storageobs
e535    -46.402673604240555    1.0   storageobs
e536    -42.92991130263286    1.0   storageobs
e537    -46.254198647791043    1.0   storageobs
e538    -45.377514282304332    1.0   storageobs
e539    -45.792212560715932    1.0   storageobs
e540    -45.158252354924265    1.0   storageobs
e541    -42.876574721251252    1.0   storageobs
e542    -41.996116942773682    1.0   storageobs
e543    -41.195056517406641    1.0   storageobs
e544    -40.311503226002522    1.0   storageobs
e545    -39.427949934598402    1.0   storageobs
e546    -40.220264103120172    1.0   storageobs
e547    -39.955000776233746    1.0   storageobs
e548    -39.275216789789084    1.0   storageobs
e549    -38.907792898050417    1.0   storageobs
e550    -38.271880339796311    1.0   storageobs
e551    -39.7159629172275    1.0   storageobs
e552    -39.435074770303878    1.0   storageobs
e553    -39.704267032716288    1.0   storageobs
e554    -39.161347863170846    1.0   storageobs
e555    -38.618428693625404    1.0   storageobs
e556    -38.075509524079962    1.0   storageobs
e557    -37.53259035453452    1.0   storageobs
e558    -36.989671184989078    1.0   storageobs
e559    -36.446752015443636    1.0   storageobs
e560    -34.778738723955975    1.0   storageobs
e561    -34.174412425056609    1.0   storageobs
e562    -33.570086126157257    1.0   storageobs
e563    -32.965759827257891    1.0   storageobs
e564    -32.361433528358539    1.0   storageobs
e565    -31.757107229459173    1.0   storageobs
e566    -29.921983867605665    1.0   storageobs
e567    -31.818030451576277    1.0   storageobs
e568    -32.02524691104832    1.0   storageobs
e569    -37.900149574785956    1.0   storageobs
e570    -39.453708158155372    1.0   storageobs
e571    -37.820301260275706    1.0   storageobs
e572    -36.186894362396039    1.0   storageobs
e573    -34.553487464516351    1.0   storageobs
e574    -32.920080566636685    1.0   storageobs
e575    -31.286673668757015    1.0   storageobs
e576    -30.872993610504775    1.0   storageobs
e577    -29.22443678772726    1.0   storageobs
e578    -27.827526453341466    1.0   storageobs
e579    -26.105524569231115    1.0   storageobs
e580    -24.018142557244829    1.0   storageobs
e581    -22.0005573727559    1.0   storageobs
e582    -19.982972188266977    1.0   storageobs
e583    -17.965387003778044    1.0   storageobs
e584    -26.845410929588212    1.0   storageobs
e585    -26.097781289915464    1.0   storageobs
e586    -25.350151650242719    1.0   storageobs
e587    -24.602522010569967    1.0   storageobs
e588    -24.453589313152378    1.0   storageobs
e589    -24.863477870295533    1.0   storageobs
e590    -23.311766560010291    1.0   storageobs
e591    -24.423311287245948    1.0   storageobs
e592    -25.840515516694708    1.0   storageobs
e593    -25.506110494937719    1.0   storageobs
e594    -25.171705473180737    1.0   storageobs
e595    -25.827324684494634    1.0   storageobs
e596    -25.568033448618863    1.0   storageobs
e597    -25.40380720501183    1.0   storageobs
e598    -24.272670315617059    1.0   storageobs
e599    -24.244369111666781    1.0   storageobs
e600    -27.549649139758252    1.0   storageobs
e601    -26.814020606169546    1.0   storageobs
e602    -26.021642389119318    1.0   storageobs
e603    -26.821432652329804    1.0   storageobs
e604    -25.965656156528958    1.0   storageobs
e605    -25.109879660728115    1.0   storageobs
e606    -22.842644726093653    1.0   storageobs
e607    -22.333978281409802    1.0   storageobs
e608    -21.434065619638904    1.0   storageobs
e609    -21.800654896171203    1.0   storageobs
e610    -20.980203759350466    1.0   storageobs
e611    -21.442309555272669    1.0   storageobs
e612    -23.460020602175614    1.0   storageobs
e613    -23.041532527403749    1.0   storageobs
e614    -22.623044452631881    1.0   storageobs
e615    -22.204556377860015    1.0   storageobs
e616    -21.78606830308815    1.0   storageobs