pcf
* control data
restart  estimation
    3   841     1     0     1
    1     1 double point   1   0   0
   5.0  2.0   0.3  0.03    10
  3.0   3.0 0.001  0
  0.1
   30  0.01     4     3  0.01     3
    1     1     1
* parameter groups
sy_knot      relative 0.01  0.0  switch  2.0 parabolic
* parameter data
sy_knot_1   none relative   0.1500000      0.01  1    sy_knot    1.0  0.0 1
sy_knot_2   none relative   0.3500000      0.01  1    sy_knot    1.0  0.0 1
sy_knot_3   none relative   0.5000000      0.01  1    sy_knot    1.0  0.0 1
* observation groups
storageobs
* observation data
e1    -249.94927004155676    1.0   storageobs
e2    -249.84660110292845    1.0   storageobs
e3    -249.74393216430013    1.0   storageobs
e4    -249.64126322567182    1.0   storageobs
e5    -249.53859428704351    1.0   storageobs
e6    -249.4359253484152    1.0   storageobs
e7    -249.33325640978686    1.0   storageobs
e8    -249.23058747115854    1.0   storageobs
e9    -249.1279185325302    1.0   storageobs
e10    -249.02524959390192    1.0   storageobs
e11    -248.92258065527358    1.0   storageobs
e12    -248.81991171664527    1.0   storageobs
e13    -248.71724277801695    1.0   storageobs
e14    -248.61457383938864    1.0   storageobs
e15    -248.51190490076033    1.0   storageobs
e16    -248.40923596213202    1.0   storageobs
e17    -248.3065670235037    1.0   storageobs
e18    -248.20389808487536    1.0   storageobs
e19    -248.10122914624702    1.0   storageobs
e20    -247.99856020761874    1.0   storageobs
e21    -247.8958912689904    1.0   storageobs
e22    -247.79322233036208    1.0   storageobs
e23    -247.69055339173377    1.0   storageobs
e24    -246.72452624810168    1.0   storageobs
e25    -246.63501896069147    1.0   storageobs
e26    -246.54551167328131    1.0   storageobs
e27    -246.45600438587113    1.0   storageobs
e28    -246.36649709846094    1.0   storageobs
e29    -246.27698981105075    1.0   storageobs
e30    -246.1874825236406    1.0   storageobs
e31    -246.09797523623044    1.0   storageobs
e32    -246.00846794882023    1.0   storageobs
e33    -245.91896066141007    1.0   storageobs
e34    -245.82945337399988    1.0   storageobs
e35    -245.73994608658973    1.0   storageobs
e36    -245.65043879917957    1.0   storageobs
e37    -245.56093151176935    1.0   storageobs
e38    -245.4714242243592    1.0   storageobs
e39    -245.38191693694901    1.0   storageobs
e40    -245.29240964953883    1.0   storageobs
e41    -245.20290236212864    1.0   storageobs
e42    -245.11339507471848    1.0   storageobs
e43    -245.02388778730833    1.0   storageobs
e44    -244.93438049989811    1.0   storageobs
e45    -244.84487321248795    1.0   storageobs
e46    -244.75536592507774    1.0   storageobs
e47    -244.66585863766758    1.0   storageobs
e48    -244.5763513502574    1.0   storageobs
e49    -244.48684406284721    1.0   storageobs
e50    -244.39733677543703    1.0   storageobs
e51    -244.3078294880269    1.0   storageobs
e52    -244.21832220061671    1.0   storageobs
e53    -244.1288149132065    1.0   storageobs
e54    -244.03930762579634    1.0   storageobs
e55    -243.5095535669561    1.0   storageobs
e56    -243.41194634794215    1.0   storageobs
e57    -243.31433912892822    1.0   storageobs
e58    -243.2167319099143    1.0   storageobs
e59    -243.11912469090038    1.0   storageobs
e60    -243.02151747188645    1.0   storageobs
e61    -242.9239102528725    1.0   storageobs
e62    -242.82630303385858    1.0   storageobs
e63    -242.72869581484463    1.0   storageobs
e64    -242.6310885958307    1.0   storageobs
e65    -242.53348137681678    1.0   storageobs
e66    -242.43587415780286    1.0   storageobs
e67    -242.33826693878893    1.0   storageobs
e68    -242.24065971977501    1.0   storageobs
e69    -242.14305250076106    1.0   storageobs
e70    -242.04544528174711    1.0   storageobs
e71    -241.94783806273318    1.0   storageobs
e72    -241.85023084371926    1.0   storageobs
e73    -241.75262362470534    1.0   storageobs
e74    -241.65501640569141    1.0   storageobs
e75    -241.55740918667746    1.0   storageobs
e76    -241.45980196766354    1.0   storageobs
e77    -241.36219474864961    1.0   storageobs
e78    -241.26458752963566    1.0   storageobs
e79    -241.16698031062174    1.0   storageobs
e80    -241.06937309160782    1.0   storageobs
e81    -240.97176587259389    1.0   storageobs
e82    -240.87415865357997    1.0   storageobs
e83    -240.77655143456602    1.0   storageobs
e84    -240.67894421555206    1.0   storageobs
e85    -240.58133699653814    1.0   storageobs
e86    -240.48372977752422    1.0   storageobs
e87    -240.38612255851029    1.0   storageobs
e88    -240.28851533949637    1.0   storageobs
e89    -240.19090812048245    1.0   storageobs
e90    -240.0933009014685    1.0   storageobs
e91    -239.99569368245454    1.0   storageobs
e92    -239.89808646344062    1.0   storageobs
e93    -239.8004792444267    1.0   storageobs
e94    -239.70287202541277    1.0   storageobs
e95    -239.60526480639885    1.0   storageobs
e96    -239.5076575873849    1.0   storageobs
e97    -239.41005036837097    1.0   storageobs
e98    -239.31244314935705    1.0   storageobs
e99    -239.2148359303431    1.0   storageobs
e100    -239.11722871132918    1.0   storageobs
e101    -239.01962149231525    1.0   storageobs
e102    -238.92201427330133    1.0   storageobs
e103    -238.82440705428741    1.0   storageobs
e104    -238.72679983527345    1.0   storageobs
e105    -238.62919261625953    1.0   storageobs
e106    -238.53158539724558    1.0   storageobs
e107    -238.43397817823165    1.0   storageobs
e108    -238.33637095921773    1.0   storageobs
e109    -238.23876374020381    1.0   storageobs
e110    -238.14115652118988    1.0   storageobs
e111    -238.04354930217593    1.0   storageobs
e112    -237.94594208316198    1.0   storageobs
e113    -237.84833486414806    1.0   storageobs
e114    -237.75072764513413    1.0   storageobs
e115    -237.65312042612021    1.0   storageobs
e116    -237.52773634565702    1.0   storageobs
e117    -237.40421063885557    1.0   storageobs
e118    -237.2806849320541    1.0   storageobs
e119    -237.15715922525263    1.0   storageobs
e120    -241.39075940086082    1.0   storageobs
e121    -241.13211267200856    1.0   storageobs
e122    -240.87346594315633    1.0   storageobs
e123    -240.61481921430411    1.0   storageobs
e124    -240.35617248545188    1.0   storageobs
e125    -240.09752575659959    1.0   storageobs
e126    -239.83887902774742    1.0   storageobs
e127    -239.58023229889514    1.0   storageobs
e128    -239.32158557004291    1.0   storageobs
e129    -239.06293884119069    1.0   storageobs
e130    -238.80429211233846    1.0   storageobs
e131    -238.54564538348623    1.0   storageobs
e132    -238.286998654634    1.0   storageobs
e133    -238.02835192578178    1.0   storageobs
e134    -237.76970519692955    1.0   storageobs
e135    -237.51105846807732    1.0   storageobs
e136    -237.25241173922507    1.0   storageobs
e137    -236.99376501037284    1.0   storageobs
e138    -236.73511828152061    1.0   storageobs
e139    -236.47647155266836    1.0   storageobs
e140    -236.21782482381616    1.0   storageobs
e141    -235.95917809496393    1.0   storageobs
e142    -235.70053136611168    1.0   storageobs
e143    -235.44188463725945    1.0   storageobs
e144    -235.18323790840722    1.0   storageobs
e145    -234.92459117955499    1.0   storageobs
e146    -234.66594445070277    1.0   storageobs
e147    -234.40729772185054    1.0   storageobs
e148    -234.14865099299831    1.0   storageobs
e149    -233.89000426414603    1.0   storageobs
e150    -233.6313575352938    1.0   storageobs
e151    -233.37271080644157    1.0   storageobs
e152    -233.11406407758935    1.0   storageobs
e153    -232.85541734873709    1.0   storageobs
e154    -232.59677061988489    1.0   storageobs
e155    -232.33812389103267    1.0   storageobs
e156    -232.07947716218041    1.0   storageobs
e157    -231.82083043332818    1.0   storageobs
e158    -231.56218370447596    1.0   storageobs
e159    -231.30353697562373    1.0   storageobs
e160    -231.0448902467715    1.0   storageobs
e161    -230.78624351791927    1.0   storageobs
e162    -230.52759678906705    1.0   storageobs
e163    -230.26895006021482    1.0   storageobs
e164    -230.01030333136256    1.0   storageobs
e165    -229.75165660251034    1.0   storageobs
e166    -232.3169417910708    1.0   storageobs
e167    -231.97322171838397    1.0   storageobs
e168    -231.62950164569713    1.0   storageobs
e169    -231.2857815730103    1.0   storageobs
e170    -230.94206150032346    1.0   storageobs
e171    -230.59834142763663    1.0   storageobs
e172    -230.25462135494979    1.0   storageobs
e173    -229.91090128226296    1.0   storageobs
e174    -229.56718120957615    1.0   storageobs
e175    -229.22346113688931    1.0   storageobs
e176    -228.87974106420248    1.0   storageobs
e177    -228.53602099151564    1.0   storageobs
e178    -228.19230091882881    1.0   storageobs
e179    -227.848580846142    1.0   storageobs
e180    -227.50486077345516    1.0   storageobs
e181    -227.16114070076836    1.0   storageobs
e182    -226.81742062808152    1.0   storageobs
e183    -226.47370055539469    1.0   storageobs
e184    -226.12998048270785    1.0   storageobs
e185    -225.78626041002101    1.0   storageobs
e186    -225.44254033733421    1.0   storageobs
e187    -225.09882026464737    1.0   storageobs
e188    -224.75510019196054    1.0   storageobs
e189    -224.41138011927367    1.0   storageobs
e190    -224.06766004658687    1.0   storageobs
e191    -223.72393997390003    1.0   storageobs
e192    -223.3802199012132    1.0   storageobs
e193    -223.03649982852636    1.0   storageobs
e194    -222.69277975583952    1.0   storageobs
e195    -222.34905968315272    1.0   storageobs
e196    -222.00533961046588    1.0   storageobs
e197    -221.66161953777905    1.0   storageobs
e198    -221.31789946509218    1.0   storageobs
e199    -220.97417939240538    1.0   storageobs
e200    -220.63045931971857    1.0   storageobs
e201    -220.28673924703173    1.0   storageobs
e202    -219.9430191743449    1.0   storageobs
e203    -219.59929910165806    1.0   storageobs
e204    -219.25557902897123    1.0   storageobs
e205    -218.91185895628439    1.0   storageobs
e206    -218.56813888359756    1.0   storageobs
e207    -218.22441881091072    1.0   storageobs
e208    -217.88069873822388    1.0   storageobs
e209    -217.53697866553708    1.0   storageobs
e210    -217.19325859285024    1.0   storageobs
e211    -216.84953852016341    1.0   storageobs
e212    -216.50581844747657    1.0   storageobs
e213    -216.16209837478974    1.0   storageobs
e214    -215.81837830210293    1.0   storageobs
e215    -215.47465822941609    1.0   storageobs
e216    -215.13093815672929    1.0   storageobs
e217    -214.78721808404245    1.0   storageobs
e218    -214.44349801135562    1.0   storageobs
e219    -216.92724829611345    1.0   storageobs
e220    -216.62513721623975    1.0   storageobs
e221    -213.45306639302379    1.0   storageobs
e222    -213.06591499974019    1.0   storageobs
e223    -212.67876360645664    1.0   storageobs
e224    -212.29161221317304    1.0   storageobs
e225    -211.90446081988947    1.0   storageobs
e226    -211.51730942660589    1.0   storageobs
e227    -211.13015803332232    1.0   storageobs
e228    -210.74300664003874    1.0   storageobs
e229    -210.35585524675514    1.0   storageobs
e230    -209.9687038534716    1.0   storageobs
e231    -209.58155246018802    1.0   storageobs
e232    -209.19440106690445    1.0   storageobs
e233    -213.41803151107348    1.0   storageobs
e234    -213.27470271192649    1.0   storageobs
e235    -213.13137391277954    1.0   storageobs
e236    -212.98804511363255    1.0   storageobs
e237    -212.84471631448559    1.0   storageobs
e238    -212.70138751533864    1.0   storageobs
e239    -212.55805871619165    1.0   storageobs
e240    -212.41472991704467    1.0   storageobs
e241    -212.27140111789771    1.0   storageobs
e242    -212.12807231875075    1.0   storageobs
e243    -211.98474351960377    1.0   storageobs
e244    -211.84141472045678    1.0   storageobs
e245    -211.69808592130983    1.0   storageobs
e246    -211.55475712216287    1.0   storageobs
e247    -211.41142832301588    1.0   storageobs
e248    -211.2680995238689    1.0   storageobs
e249    -211.12477072472194    1.0   storageobs
e250    -213.46374388371592    1.0   storageobs
e251    -213.25678035078428    1.0   storageobs
e252    -213.04981681785262    1.0   storageobs
e253    -212.84285328492101    1.0   storageobs
e254    -212.63588975198934    1.0   storageobs
e255    -212.42892621905773    1.0   storageobs
e256    -212.22196268612606    1.0   storageobs
e257    -212.01499915319445    1.0   storageobs
e258    -211.80803562026281    1.0   storageobs
e259    -211.60107208733118    1.0   storageobs
e260    -211.39410855439954    1.0   storageobs
e261    -211.1871450214679    1.0   storageobs
e262    -210.98018148853626    1.0   storageobs
e263    -210.77321795560462    1.0   storageobs
e264    -210.56625442267296    1.0   storageobs
e265    -210.35929088974135    1.0   storageobs
e266    -210.15232735680971    1.0   storageobs
e267    -208.06056692406568    1.0   storageobs
e268    -207.89429884508988    1.0   storageobs
e269    -207.72803076611407    1.0   storageobs
e270    -207.5617626871383    1.0   storageobs
e271    -207.39549460816249    1.0   storageobs
e272    -207.22922652918669    1.0   storageobs
e273    -207.06295845021091    1.0   storageobs
e274    -206.89669037123508    1.0   storageobs
e275    -207.68426428988928    1.0   storageobs
e276    -207.50064137165569    1.0   storageobs
e277    -207.31701845342212    1.0   storageobs
e278    -207.13339553518853    1.0   storageobs
e279    -206.94977261695499    1.0   storageobs
e280    -206.76614969872139    1.0   storageobs
e281    -206.58252678048785    1.0   storageobs
e282    -206.39890386225429    1.0   storageobs
e283    -206.21528094402066    1.0   storageobs
e284    -206.0316580257871    1.0   storageobs
e285    -205.84803510755356    1.0   storageobs
e286    -205.66441218931996    1.0   storageobs
e287    -205.48078927108637    1.0   storageobs
e288    -205.2971663528528    1.0   storageobs
e289    -205.11354343461926    1.0   storageobs
e290    -206.0402337163122    1.0   storageobs
e291    -205.77992864857674    1.0   storageobs
e292    -205.51962358084123    1.0   storageobs
e293    -205.25931851310574    1.0   storageobs
e294    -204.99901344537025    1.0   storageobs
e295    -204.73870837763479    1.0   storageobs
e296    -202.80557105982362    1.0   storageobs
e297    -202.57631240209432    1.0   storageobs
e298    -202.34705374436504    1.0   storageobs
e299    -202.11779508663568    1.0   storageobs
e300    -201.88853642890641    1.0   storageobs
e301    -201.65927777117713    1.0   storageobs
e302    -201.43001911344783    1.0   storageobs
e303    -201.20076045571855    1.0   storageobs
e304    -200.97150179798925    1.0   storageobs
e305    -200.74224314025997    1.0   storageobs
e306    -200.5129844825307    1.0   storageobs
e307    -200.28372582480139    1.0   storageobs
e308    -200.05446716707209    1.0   storageobs
e309    -199.82520850934279    1.0   storageobs
e310    -199.59594985161351    1.0   storageobs
e311    -199.36669119388421    1.0   storageobs
e312    -199.1374325361549    1.0   storageobs
e313    -198.90817387842557    1.0   storageobs
e314    -198.67891522069633    1.0   storageobs
e315    -198.44965656296702    1.0   storageobs
e316    -198.22039790523772    1.0   storageobs
e317    -197.99113924750847    1.0   storageobs
e318    -197.7618805897792    1.0   storageobs
e319    -197.53262193204984    1.0   storageobs
e320    -197.30336327432059    1.0   storageobs
e321    -197.07410461659128    1.0   storageobs
e322    -196.84484595886198    1.0   storageobs
e323    -197.6854846656725    1.0   storageobs
e324    -197.3991392874903    1.0   storageobs
e325    -198.26294358458509    1.0   storageobs
e326    -198.02765112598328    1.0   storageobs
e327    -197.79235866738151    1.0   storageobs
e328    -200.61090499741226    1.0   storageobs
e329    -200.35547145783968    1.0   storageobs
e330    -200.10003791826705    1.0   storageobs
e331    -199.8446043786945    1.0   storageobs
e332    -199.58917083912192    1.0   storageobs
e333    -199.807594992345    1.0   storageobs
e334    -199.55574060298576    1.0   storageobs
e335    -200.46455414565298    1.0   storageobs
e336    -200.2229970826865    1.0   storageobs
e337    -199.98144001972005    1.0   storageobs
e338    -199.73988295675355    1.0   storageobs
e339    -199.49832589378704    1.0   storageobs
e340    -199.25676883082056    1.0   storageobs
e341    -199.89915307281785    1.0   storageobs
e342    -199.72108106104935    1.0   storageobs
e343    -201.09363259866063    1.0   storageobs
e344    -200.84704942374279    1.0   storageobs
e345    -200.60046624882494    1.0   storageobs
e346    -200.35388307390716    1.0   storageobs
e347    -200.638978618789    1.0   storageobs
e348    -200.38814055768614    1.0   storageobs
e349    -200.13730249658329    1.0   storageobs
e350    -199.88646443548049    1.0   storageobs
e351    -199.63562637437767    1.0   storageobs
e352    -199.38478831327484    1.0   storageobs
e353    -199.13395025217199    1.0   storageobs
e354    -198.88311219106916    1.0   storageobs
e355    -199.21352872203968    1.0   storageobs
e356    -199.81005493615029    1.0   storageobs
e357    -199.56274764738586    1.0   storageobs
e358    -199.31544035862146    1.0   storageobs
e359    -199.70202589828128    1.0   storageobs
e360    -199.43080228031016    1.0   storageobs
e361    -199.1426501411436    1.0   storageobs
e362    -198.87951371970195    1.0   storageobs
e363    -198.61637729826026    1.0   storageobs
e364    -198.35324087681857    1.0   storageobs
e365    -198.09010445537689    1.0   storageobs
e366    -197.8269680339352    1.0   storageobs
e367    -197.56383161249352    1.0   storageobs
e368    -197.30069519105183    1.0   storageobs
e369    -197.03755876961017    1.0   storageobs
e370    -196.77442234816846    1.0   storageobs
e371    -196.51128592672677    1.0   storageobs
e372    -196.24814950528508    1.0   storageobs
e373    -195.98501308384346    1.0   storageobs
e374    -196.10370938383448    1.0   storageobs
e375    -195.84331238377467    1.0   storageobs
e376    -195.58291538371489    1.0   storageobs
e377    -195.32251838365505    1.0   storageobs
e378    -195.06212138359527    1.0   storageobs
e379    -194.80172438353543    1.0   storageobs
e380    -194.54132738347559    1.0   storageobs
e381    -194.28093038341581    1.0   storageobs
e382    -195.17529197231136    1.0   storageobs
e383    -194.96664656301857    1.0   storageobs
e384    -194.75800115372579    1.0   storageobs
e385    -194.549355744433    1.0   storageobs
e386    -194.34071033514027    1.0   storageobs
e387    -194.13206492584746    1.0   storageobs
e388    -193.9234195165547    1.0   storageobs
e389    -193.71477410726195    1.0   storageobs
e390    -193.5061286979691    1.0   storageobs
e391    -193.29748328867635    1.0   storageobs
e392    -193.08883787938356    1.0   storageobs
e393    -192.88019247009078    1.0   storageobs
e394    -192.67154706079802    1.0   storageobs
e395    -192.46290165150521    1.0   storageobs
e396    -192.25425624221242    1.0   storageobs
e397    -192.04561083291966    1.0   storageobs
e398    -191.83696542362688    1.0   storageobs
e399    -191.9077396761698    1.0   storageobs
e400    -191.70074167787499    1.0   storageobs
e401    -192.17683853759584    1.0   storageobs
e402    -191.99823567855998    1.0   storageobs
e403    -191.81963281952403    1.0   storageobs
e404    -191.64102996048817    1.0   storageobs
e405    -191.46242710145231    1.0   storageobs
e406    -191.28382424241639    1.0   storageobs
e407    -191.10522138338055    1.0   storageobs
e408    -190.9266185243446    1.0   storageobs
e409    -190.74801566530874    1.0   storageobs
e410    -189.87956557228875    1.0   storageobs
e411    -189.68416007051192    1.0   storageobs
e412    -189.51823962657252    1.0   storageobs
e413    -190.22077500196389    1.0   storageobs
e414    -190.00973390759142    1.0   storageobs
e415    -189.79869281321902    1.0   storageobs
e416    -189.58765171884653    1.0   storageobs
e417    -189.3766106244741    1.0   storageobs
e418    -189.80834650785897    1.0   storageobs
e419    -189.60785342151664    1.0   storageobs
e420    -189.40736033517425    1.0   storageobs
e421    -189.20686724883186    1.0   storageobs
e422    -189.00637416248946    1.0   storageobs
e423    -188.80588107614705    1.0   storageobs
e424    -188.60538798980471    1.0   storageobs
e425    -188.40489490346232    1.0   storageobs
e426    -191.06309006881605    1.0   storageobs
e427    -190.78414912813105    1.0   storageobs
e428    -190.50520818744604    1.0   storageobs
e429    -190.2262672467611    1.0   storageobs
e430    -191.62049927902629    1.0   storageobs
e431    -191.31450903427083    1.0   storageobs
e432    -191.00851878951548    1.0   storageobs
e433    -190.70252854476004    1.0   storageobs
e434    -190.39653830000469    1.0   storageobs
e435    -190.09054805524926    1.0   storageobs
e436    -189.78455781049382    1.0   storageobs
e437    -189.56896156999593    1.0   storageobs
e438    -189.23863440913578    1.0   storageobs
e439    -188.90830724827563    1.0   storageobs
e440    -188.57798008741551    1.0   storageobs
e441    -188.2476529265553    1.0   storageobs
e442    -187.91732576569518    1.0   storageobs
e443    -187.586998604835    1.0   storageobs
e444    -187.27497589569862    1.0   storageobs
e445    -187.13155129312682    1.0   storageobs
e446    -186.65515306206007    1.0   storageobs
e447    -186.17875483099328    1.0   storageobs
e448    -185.70235659992656    1.0   storageobs
e449    -185.22595836885981    1.0   storageobs
e450    -185.30715781703378    1.0   storageobs
e451    -184.98848761990013    1.0   storageobs
e452    -184.66981742276641    1.0   storageobs
e453    -184.60154210953195    1.0   storageobs
e454    -184.27137923571442    1.0   storageobs
e455    -183.94121636189681    1.0   storageobs
e456    -183.61105348807925    1.0   storageobs
e457    -183.28089061426164    1.0   storageobs
e458    -182.95072774044408    1.0   storageobs
e459    -182.62056486662652    1.0   storageobs
e460    -182.29040199280897    1.0   storageobs
e461    -181.96023911899135    1.0   storageobs
e462    -181.63007624517374    1.0   storageobs
e463    -181.29991337135618    1.0   storageobs
e464    -180.4495375793515    1.0   storageobs
e465    -180.13512067124205    1.0   storageobs
e466    -179.66376414353147    1.0   storageobs
e467    -179.04064452610854    1.0   storageobs
e468    -178.72924680810857    1.0   storageobs
e469    -178.41784909010866    1.0   storageobs
e470    -178.37572968358415    1.0   storageobs
e471    -178.06564787529851    1.0   storageobs
e472    -177.75556606701281    1.0   storageobs
e473    -177.44548425872719    1.0   storageobs
e474    -177.45549329448653    1.0   storageobs
e475    -177.48389984054424    1.0   storageobs
e476    -177.09991255932604    1.0   storageobs
e477    -176.71592527810787    1.0   storageobs
e478    -176.18890971629853    1.0   storageobs
e479    -176.47657050420534    1.0   storageobs
e480    -176.0921652031397    1.0   storageobs
e481    -175.70775990207406    1.0   storageobs
e482    -175.32335460100848    1.0   storageobs
e483    -174.93894929994281    1.0   storageobs
e484    -174.55454399887719    1.0   storageobs
e485    -174.17013869781155    1.0   storageobs
e486    -174.68776412706458    1.0   storageobs
e487    -175.92823871629906    1.0   storageobs
e488    -175.19703097544948    1.0   storageobs
e489    -174.46582323459984    1.0   storageobs
e490    -173.62122983144548    1.0   storageobs
e491    -172.85656079265738    1.0   storageobs
e492    -172.09189175386928    1.0   storageobs
e493    -171.32722271508121    1.0   storageobs
e494    -172.28845834235847    1.0   storageobs
e495    -171.9628684656339    1.0   storageobs
e496    -171.62479410718794    1.0   storageobs
e497    -171.28671974874197    1.0   storageobs
e498    -172.66674091192743    1.0   storageobs
e499    -171.74906159799576    1.0   storageobs
e500    -171.34478968264185    1.0   storageobs
e501    -171.15246331825185    1.0   storageobs
e502    -170.86074632451556    1.0   storageobs
e503    -170.56902933077922    1.0   storageobs
e504    -170.27731233704287    1.0   storageobs
e505    -169.88339001148623    1.0   storageobs
e506    -169.59951033205812    1.0   storageobs
e507    -169.31563065263001    1.0   storageobs
e508    -169.03175097320192    1.0   storageobs
e509    -168.74787129377378    1.0   storageobs
e510    -168.46399161434567    1.0   storageobs
e511    -168.18011193491759    1.0   storageobs
e512    -168.1575342769859    1.0   storageobs
e513    -167.87681026895913    1.0   storageobs
e514    -167.59608626093237    1.0   storageobs
e515    -167.3153622529056    1.0   storageobs
e516    -167.03463824487883    1.0   storageobs
e517    -166.75391423685207    1.0   storageobs
e518    -166.65347472237909    1.0   storageobs
e519    -166.3563357495884    1.0   storageobs
e520    -166.05919677679768    1.0   storageobs
e521    -165.76205780400699    1.0   storageobs
e522    -165.9692056082946    1.0   storageobs
e523    -165.68147534687699    1.0   storageobs
e524    -165.39374508545944    1.0   storageobs
e525    -165.65028658921125    1.0   storageobs
e526    -165.34705352618971    1.0   storageobs
e527    -165.04382046316812    1.0   storageobs
e528    -164.8080612087154    1.0   storageobs
e529    -164.46710639992938    1.0   storageobs
e530    -164.12615159114338    1.0   storageobs
e531    -163.7851967823573    1.0   storageobs
e532    -163.44424197357134    1.0   storageobs
e533    -161.3324704791909    1.0   storageobs
e534    -160.95937887335583    1.0   storageobs
e535    -160.63012052380137    1.0   storageobs
e536    -160.32033990282159    1.0   storageobs
e537    -159.98279623825039    1.0   storageobs
e538    -159.6266730833849    1.0   storageobs
e539    -160.31606133210724    1.0   storageobs
e540    -159.90478505411744    1.0   storageobs
e541    -158.91886518872312    1.0   storageobs
e542    -158.57275688967488    1.0   storageobs
e543    -158.22664859062667    1.0   storageobs
e544    -157.88054029157846    1.0   storageobs
e545    -157.53443199253024    1.0   storageobs
e546    -157.18832369348206    1.0   storageobs
e547    -156.84221539443385    1.0   storageobs
e548    -156.49610709538564    1.0   storageobs
e549    -158.36798085211038    1.0   storageobs
e550    -158.05125194944063    1.0   storageobs
e551    -163.27934709795872    1.0   storageobs
e552    -162.81773413666048    1.0   storageobs
e553    -162.35612117536223    1.0   storageobs
e554    -161.89450821406396    1.0   storageobs
e555    -161.43289525276575    1.0   storageobs
e556    -160.97128229146747    1.0   storageobs
e557    -161.87348563833012    1.0   storageobs
e558    -161.42645858878979    1.0   storageobs
e559    -160.97943153924942    1.0   storageobs
e560    -160.53240448970908    1.0   storageobs
e561    -160.08537744016877    1.0   storageobs
e562    -159.63835039062843    1.0   storageobs
e563    -159.19132334108809    1.0   storageobs
e564    -158.74429629154776    1.0   storageobs
e565    -158.01060408479887    1.0   storageobs
e566    -157.53209029009369    1.0   storageobs
e567    -157.05357649538848    1.0   storageobs
e568    -156.57506270068328    1.0   storageobs
e569    -156.0965489059781    1.0   storageobs
e570    -159.11648820883411    1.0   storageobs
e571    -158.38146246835751    1.0   storageobs
e572    -157.64643672788091    1.0   storageobs
e573    -156.91141098740431    1.0   storageobs
e574    -156.17638524692771    1.0   storageobs
e575    -154.83946228939666    1.0   storageobs
e576    -154.00546747306069    1.0   storageobs
e577    -153.17147265672463    1.0   storageobs
e578    -152.3374778403886    1.0   storageobs
e579    -151.29916561994861    1.0   storageobs
e580    -150.49102790242895    1.0   storageobs
e581    -149.68289018490933    1.0   storageobs
e582    -149.36595239745012    1.0   storageobs
e583    -147.74870978113074    1.0   storageobs
e584    -146.89218290468142    1.0   storageobs
e585    -146.03565602823213    1.0   storageobs
e586    -145.17912915178283    1.0   storageobs
e587    -144.32260227533351    1.0   storageobs
e588    -143.46607539888421    1.0   storageobs
e589    -142.11243542432473    1.0   storageobs
e590    -141.18562904978353    1.0   storageobs
e591    -139.97618024315287    1.0   storageobs
e592    -139.01025797576594    1.0   storageobs
e593    -140.86775368684096    1.0   storageobs
e594    -138.37836864528617    1.0   storageobs
e595    -137.25101238633329    1.0   storageobs
e596    -136.1236561273804    1.0   storageobs
e597    -134.99629986842754    1.0   storageobs
e598    -133.86894360947463    1.0   storageobs
e599    -132.74158735052177    1.0   storageobs
e600    -132.28653268536104    1.0   storageobs
e601    -133.88925073301982    1.0   storageobs
e602    -132.94168773763988    1.0   storageobs
e603    -131.31953534563172    1.0   storageobs
e604    -130.42223803318689    1.0   storageobs
e605    -129.52494072074208    1.0   storageobs
e606    -128.62764340829722    1.0   storageobs
e607    -127.73034609585238    1.0   storageobs
e608    -126.83304878340752    1.0   storageobs
e609    -128.97049425215346    1.0   storageobs
e610    -128.42176813748614    1.0   storageobs
e611    -127.87304202281882    1.0   storageobs
e612    -126.25752106822112    1.0   storageobs
e613    -125.67278754098216    1.0   storageobs
e614    -125.08805401374319    1.0   storageobs
e615    -124.50332048650425    1.0   storageobs
e616    -123.91858695926528    1.0   storageobs