pcf
* control data
restart  estimation
    3   689     1     0     1
    1     1 double point   1   0   0
   5.0  2.0   0.3  0.03    10
  3.0   3.0 0.001  0
  0.1
   30  0.01     4     3  0.01     3
    1     1     1
* parameter groups
sy_knot      relative 0.01  0.0  switch  2.0 parabolic
* parameter data
sy_knot_1   none relative   0.1500000      0.01  1    sy_knot    1.0  0.0 1
sy_knot_2   none relative   0.2500000      0.01  1    sy_knot    1.0  0.0 1
sy_knot_3   none relative   0.4500000      0.01  1    sy_knot    1.0  0.0 1
* observation groups
storageobs
* observation data
e1    -171.65078256010935    1.0   storageobs
e2    -171.48587520141965    1.0   storageobs
e3    -171.32096784272994    1.0   storageobs
e4    -171.15606048404024    1.0   storageobs
e5    -170.99115312535054    1.0   storageobs
e6    -170.82624576666083    1.0   storageobs
e7    -170.66133840797113    1.0   storageobs
e8    -170.49643104928143    1.0   storageobs
e9    -170.33152369059172    1.0   storageobs
e10    -170.16661633190205    1.0   storageobs
e11    -170.00170897321232    1.0   storageobs
e12    -169.83680161452264    1.0   storageobs
e13    -169.67189425583291    1.0   storageobs
e14    -169.50698689714324    1.0   storageobs
e15    -169.3420795384535    1.0   storageobs
e16    -169.1771721797638    1.0   storageobs
e17    -169.0122648210741    1.0   storageobs
e18    -168.84735746238439    1.0   storageobs
e19    -168.68245010369469    1.0   storageobs
e20    -168.51754274500502    1.0   storageobs
e21    -168.35263538631528    1.0   storageobs
e22    -168.18772802762561    1.0   storageobs
e23    -168.02282066893588    1.0   storageobs
e24    -167.8579133102462    1.0   storageobs
e25    -167.69300595155647    1.0   storageobs
e26    -167.5280985928668    1.0   storageobs
e27    -167.36319123417709    1.0   storageobs
e28    -167.19828387548739    1.0   storageobs
e29    -167.03337651679769    1.0   storageobs
e30    -166.86846915810798    1.0   storageobs
e31    -166.70356179941825    1.0   storageobs
e32    -166.53865444072858    1.0   storageobs
e33    -166.37374708203885    1.0   storageobs
e34    -166.20883972334917    1.0   storageobs
e35    -166.04393236465944    1.0   storageobs
e36    -165.87902500596977    1.0   storageobs
e37    -165.71411764728006    1.0   storageobs
e38    -165.54921028859036    1.0   storageobs
e39    -165.38430292990066    1.0   storageobs
e40    -165.21939557121095    1.0   storageobs
e41    -165.05448821252125    1.0   storageobs
e42    -164.88958085383155    1.0   storageobs
e43    -164.72467349514187    1.0   storageobs
e44    -164.55976613645214    1.0   storageobs
e45    -164.39485877776244    1.0   storageobs
e46    -164.22995141907273    1.0   storageobs
e47    -164.06504406038303    1.0   storageobs
e48    -163.90013670169333    1.0   storageobs
e49    -163.73522934300362    1.0   storageobs
e50    -163.57032198431392    1.0   storageobs
e51    -163.40541462562422    1.0   storageobs
e52    -163.24050726693451    1.0   storageobs
e53    -163.07559990824484    1.0   storageobs
e54    -162.91069254955511    1.0   storageobs
e55    -162.74578519086543    1.0   storageobs
e56    -162.5808778321757    1.0   storageobs
e57    -162.41597047348603    1.0   storageobs
e58    -162.2510631147963    1.0   storageobs
e59    -163.71757016716327    1.0   storageobs
e60    -163.50105130310001    1.0   storageobs
e61    -163.28453243903672    1.0   storageobs
e62    -163.06801357497343    1.0   storageobs
e63    -162.85149471091015    1.0   storageobs
e64    -162.0217830697319    1.0   storageobs
e65    -161.81048459179146    1.0   storageobs
e66    -161.59918611385103    1.0   storageobs
e67    -161.3878876359106    1.0   storageobs
e68    -161.1765891579702    1.0   storageobs
e69    -160.96529068002974    1.0   storageobs
e70    -162.23849224538046    1.0   storageobs
e71    -161.99713586830427    1.0   storageobs
e72    -161.75577949122814    1.0   storageobs
e73    -161.51442311415198    1.0   storageobs
e74    -161.27306673707582    1.0   storageobs
e75    -161.03171035999966    1.0   storageobs
e76    -160.79035398292351    1.0   storageobs
e77    -160.54899760584735    1.0   storageobs
e78    -160.30764122877119    1.0   storageobs
e79    -160.06628485169503    1.0   storageobs
e80    -159.8249284746189    1.0   storageobs
e81    -159.58357209754274    1.0   storageobs
e82    -159.34221572046661    1.0   storageobs
e83    -159.10085934339045    1.0   storageobs
e84    -158.8595029663143    1.0   storageobs
e85    -158.61814658923814    1.0   storageobs
e86    -158.37679021216198    1.0   storageobs
e87    -158.1606183031237    1.0   storageobs
e88    -157.92019469002318    1.0   storageobs
e89    -157.67977107692269    1.0   storageobs
e90    -157.43934746382223    1.0   storageobs
e91    -157.19892385072171    1.0   storageobs
e92    -156.95850023762128    1.0   storageobs
e93    -156.71807662452076    1.0   storageobs
e94    -156.47765301142024    1.0   storageobs
e95    -156.23722939831981    1.0   storageobs
e96    -155.99680578521929    1.0   storageobs
e97    -155.7563821721188    1.0   storageobs
e98    -155.51595855901834    1.0   storageobs
e99    -156.70445187111187    1.0   storageobs
e100    -156.36759473201425    1.0   storageobs
e101    -156.03073759291667    1.0   storageobs
e102    -155.69388045381908    1.0   storageobs
e103    -155.35702331472152    1.0   storageobs
e104    -155.02016617562387    1.0   storageobs
e105    -154.68330903652628    1.0   storageobs
e106    -154.34645189742869    1.0   storageobs
e107    -153.79470450506233    1.0   storageobs
e108    -153.43077347970186    1.0   storageobs
e109    -153.06684245434138    1.0   storageobs
e110    -152.70291142898085    1.0   storageobs
e111    -152.33898040362035    1.0   storageobs
e112    -151.11992824746264    1.0   storageobs
e113    -150.78879918130914    1.0   storageobs
e114    -150.45767011515565    1.0   storageobs
e115    -149.89653715708118    1.0   storageobs
e116    -149.18999170837972    1.0   storageobs
e117    -148.87294247903949    1.0   storageobs
e118    -148.55589324969924    1.0   storageobs
e119    -148.23884402035901    1.0   storageobs
e120    -147.92179479101875    1.0   storageobs
e121    -147.60474556167853    1.0   storageobs
e122    -147.2876963323383    1.0   storageobs
e123    -147.03546540322526    1.0   storageobs
e124    -146.71880083752362    1.0   storageobs
e125    -146.40213627182195    1.0   storageobs
e126    -146.08547170612033    1.0   storageobs
e127    -145.76880714041869    1.0   storageobs
e128    -147.03349590403565    1.0   storageobs
e129    -146.60524669953605    1.0   storageobs
e130    -146.17699749503652    1.0   storageobs
e131    -145.74874829053692    1.0   storageobs
e132    -147.03565034805462    1.0   storageobs
e133    -146.69077866020902    1.0   storageobs
e134    -146.34590697236348    1.0   storageobs
e135    -146.00103528451788    1.0   storageobs
e136    -145.65616359667226    1.0   storageobs
e137    -145.31129190882669    1.0   storageobs
e138    -144.96642022098106    1.0   storageobs
e139    -146.24862347325319    1.0   storageobs
e140    -146.0262615899334    1.0   storageobs
e141    -145.69116716916    1.0   storageobs
e142    -145.35607274838662    1.0   storageobs
e143    -145.02097832761325    1.0   storageobs
e144    -144.68588390683982    1.0   storageobs
e145    -144.50843563921023    1.0   storageobs
e146    -144.18413468521638    1.0   storageobs
e147    -143.85983373122252    1.0   storageobs
e148    -143.02668407909891    1.0   storageobs
e149    -142.72758469748317    1.0   storageobs
e150    -143.52158861391484    1.0   storageobs
e151    -143.31351346174606    1.0   storageobs
e152    -143.10543830957727    1.0   storageobs
e153    -142.89736315740842    1.0   storageobs
e154    -142.68928800523969    1.0   storageobs
e155    -142.48121285307087    1.0   storageobs
e156    -142.27313770090208    1.0   storageobs
e157    -142.06506254873327    1.0   storageobs
e158    -142.3041520255191    1.0   storageobs
e159    -142.04915485819444    1.0   storageobs
e160    -141.65795195052482    1.0   storageobs
e161    -141.39570254467995    1.0   storageobs
e162    -141.13345313883502    1.0   storageobs
e163    -141.00414906865282    1.0   storageobs
e164    -140.74467815584802    1.0   storageobs
e165    -140.48520724304319    1.0   storageobs
e166    -140.22573633023836    1.0   storageobs
e167    -139.96626541743356    1.0   storageobs
e168    -139.22876281579548    1.0   storageobs
e169    -138.98513893722    1.0   storageobs
e170    -138.7415150586445    1.0   storageobs
e171    -139.26090316792931    1.0   storageobs
e172    -139.03073583427917    1.0   storageobs
e173    -138.80056850062908    1.0   storageobs
e174    -138.57040116697897    1.0   storageobs
e175    -138.34023383332885    1.0   storageobs
e176    -138.11006649967874    1.0   storageobs
e177    -137.87989916602862    1.0   storageobs
e178    -138.18555982187635    1.0   storageobs
e179    -138.00479748674957    1.0   storageobs
e180    -137.82403515162278    1.0   storageobs
e181    -137.64327281649594    1.0   storageobs
e182    -137.46251048136918    1.0   storageobs
e183    -137.18244532236392    1.0   storageobs
e184    -137.01109484704622    1.0   storageobs
e185    -136.83974437172859    1.0   storageobs
e186    -136.66839389641092    1.0   storageobs
e187    -136.49704342109325    1.0   storageobs
e188    -136.32569294577559    1.0   storageobs
e189    -136.15434247045795    1.0   storageobs
e190    -136.18302382580308    1.0   storageobs
e191    -136.02057858260429    1.0   storageobs
e192    -135.8581333394055    1.0   storageobs
e193    -135.69568809620668    1.0   storageobs
e194    -135.53324285300789    1.0   storageobs
e195    -135.3707976098091    1.0   storageobs
e196    -135.20835236661031    1.0   storageobs
e197    -135.04590712341152    1.0   storageobs
e198    -134.88346188021271    1.0   storageobs
e199    -134.72101663701395    1.0   storageobs
e200    -134.55857139381516    1.0   storageobs
e201    -134.39612615061634    1.0   storageobs
e202    -134.23368090741755    1.0   storageobs
e203    -134.07123566421873    1.0   storageobs
e204    -133.90879042101994    1.0   storageobs
e205    -133.74634517782118    1.0   storageobs
e206    -133.58389993462237    1.0   storageobs
e207    -133.42145469142361    1.0   storageobs
e208    -133.01922691232443    1.0   storageobs
e209    -132.85230867929693    1.0   storageobs
e210    -132.68539044626945    1.0   storageobs
e211    -132.51847221324195    1.0   storageobs
e212    -132.35155398021445    1.0   storageobs
e213    -132.18463574718695    1.0   storageobs
e214    -132.01771751415947    1.0   storageobs
e215    -131.850799281132    1.0   storageobs
e216    -131.68388104810447    1.0   storageobs
e217    -131.51696281507697    1.0   storageobs
e218    -131.56994098067179    1.0   storageobs
e219    -131.73878863334161    1.0   storageobs
e220    -131.5897288673608    1.0   storageobs
e221    -132.2557347365065    1.0   storageobs
e222    -135.3312929889718    1.0   storageobs
e223    -134.98670775764137    1.0   storageobs
e224    -134.64212252631089    1.0   storageobs
e225    -134.95558378650236    1.0   storageobs
e226    -134.61258892127256    1.0   storageobs
e227    -134.79200001432162    1.0   storageobs
e228    -134.56632523352667    1.0   storageobs
e229    -134.34065045273169    1.0   storageobs
e230    -134.11497567193675    1.0   storageobs
e231    -134.96656771509089    1.0   storageobs
e232    -134.59878372364903    1.0   storageobs
e233    -134.4213173832014    1.0   storageobs
e234    -134.02447818033798    1.0   storageobs
e235    -133.62763897747453    1.0   storageobs
e236    -133.23079977461111    1.0   storageobs
e237    -132.83396057174767    1.0   storageobs
e238    -132.43712136888425    1.0   storageobs
e239    -132.04028216602083    1.0   storageobs
e240    -131.64344296315738    1.0   storageobs
e241    -132.1390111158868    1.0   storageobs
e242    -131.90890175671822    1.0   storageobs
e243    -131.67879239754961    1.0   storageobs
e244    -131.67494419029583    1.0   storageobs
e245    -131.43312274409635    1.0   storageobs
e246    -131.19130129789684    1.0   storageobs
e247    -130.94947985169733    1.0   storageobs
e248    -130.70765840549785    1.0   storageobs
e249    -130.46583695929837    1.0   storageobs
e250    -130.22401551309886    1.0   storageobs
e251    -131.57151735340349    1.0   storageobs
e252    -131.33704682067858    1.0   storageobs
e253    -131.10257628795367    1.0   storageobs
e254    -130.86810575522875    1.0   storageobs
e255    -130.63363522250384    1.0   storageobs
e256    -130.39916468977893    1.0   storageobs
e257    -130.16469415705402    1.0   storageobs
e258    -129.93022362432913    1.0   storageobs
e259    -129.69575309160419    1.0   storageobs
e260    -129.46128255887928    1.0   storageobs
e261    -129.22681202615439    1.0   storageobs
e262    -128.99234149342945    1.0   storageobs
e263    -128.75787096070457    1.0   storageobs
e264    -128.52340042797962    1.0   storageobs
e265    -128.49883687664217    1.0   storageobs
e266    -128.27819654211541    1.0   storageobs
e267    -127.52284550660224    1.0   storageobs
e268    -129.23420918426459    1.0   storageobs
e269    -129.39846654865971    1.0   storageobs
e270    -129.17292177545721    1.0   storageobs
e271    -129.0402927207704    1.0   storageobs
e272    -128.72183222905213    1.0   storageobs
e273    -128.40337173733388    1.0   storageobs
e274    -128.2707426826471    1.0   storageobs
e275    -128.12552076318966    1.0   storageobs
e276    -127.88820172221283    1.0   storageobs
e277    -127.650882681236    1.0   storageobs
e278    -127.41356364025914    1.0   storageobs
e279    -127.1762445992823    1.0   storageobs
e280    -126.93892555830546    1.0   storageobs
e281    -126.7016065173286    1.0   storageobs
e282    -126.46428747635176    1.0   storageobs
e283    -126.22696843537493    1.0   storageobs
e284    -125.98964939439806    1.0   storageobs
e285    -125.75233035342123    1.0   storageobs
e286    -125.51501131244437    1.0   storageobs
e287    -125.27769227146753    1.0   storageobs
e288    -125.04037323049069    1.0   storageobs
e289    -124.80305418951384    1.0   storageobs
e290    -124.56573514853699    1.0   storageobs
e291    -124.44068836379711    1.0   storageobs
e292    -124.21107602866441    1.0   storageobs
e293    -124.76057916001011    1.0   storageobs
e294    -124.54511957276183    1.0   storageobs
e295    -124.64555940552569    1.0   storageobs
e296    -124.43538890803028    1.0   storageobs
e297    -124.22521841053486    1.0   storageobs
e298    -124.01504791303944    1.0   storageobs
e299    -123.80487741554403    1.0   storageobs
e300    -123.59470691804862    1.0   storageobs
e301    -123.38453642055319    1.0   storageobs
e302    -123.17436592305779    1.0   storageobs
e303    -122.96419542556235    1.0   storageobs
e304    -122.75402492806694    1.0   storageobs
e305    -122.45395527839436    1.0   storageobs
e306    -122.24947497876252    1.0   storageobs
e307    -122.0449946791307    1.0   storageobs
e308    -121.84051437949886    1.0   storageobs
e309    -121.636034079867    1.0   storageobs
e310    -124.05415429575598    1.0   storageobs
e311    -123.77624001774385    1.0   storageobs
e312    -124.4227067178353    1.0   storageobs
e313    -124.12509414910575    1.0   storageobs
e314    -123.82748158037624    1.0   storageobs
e315    -123.52986901164671    1.0   storageobs
e316    -123.62140660427853    1.0   storageobs
e317    -123.31664686877541    1.0   storageobs
e318    -123.01188713327225    1.0   storageobs
e319    -123.13589945583934    1.0   storageobs
e320    -122.7208799514575    1.0   storageobs
e321    -122.38790236984387    1.0   storageobs
e322    -122.445610146805    1.0   storageobs
e323    -122.11099298605011    1.0   storageobs
e324    -121.77637582529522    1.0   storageobs
e325    -121.44175866454037    1.0   storageobs
e326    -121.53264416785701    1.0   storageobs
e327    -121.19454395193121    1.0   storageobs
e328    -125.45424181065641    1.0   storageobs
e329    -125.01394656401635    1.0   storageobs
e330    -124.57365131737626    1.0   storageobs
e331    -124.08125849836208    1.0   storageobs
e332    -123.64458429167742    1.0   storageobs
e333    -123.20791008499276    1.0   storageobs
e334    -122.7712358783081    1.0   storageobs
e335    -122.33456167162348    1.0   storageobs
e336    -121.86554396390534    1.0   storageobs
e337    -121.39022137612199    1.0   storageobs
e338    -120.77278803808927    1.0   storageobs
e339    -120.36911838743653    1.0   storageobs
e340    -119.96544873678373    1.0   storageobs
e341    -119.56177908613098    1.0   storageobs
e342    -119.15810943547821    1.0   storageobs
e343    -118.76671238259235    1.0   storageobs
e344    -118.34948256832622    1.0   storageobs
e345    -117.93225275406006    1.0   storageobs
e346    -117.51502293979395    1.0   storageobs
e347    -117.09779312552782    1.0   storageobs
e348    -116.7673809591235    1.0   storageobs
e349    -116.35501568303587    1.0   storageobs
e350    -115.9426504069482    1.0   storageobs
e351    -115.53028513086055    1.0   storageobs
e352    -115.11791985477288    1.0   storageobs
e353    -114.70555457868522    1.0   storageobs
e354    -114.29318930259758    1.0   storageobs
e355    -113.88082402650993    1.0   storageobs
e356    -113.22273116498323    1.0   storageobs
e357    -112.82754353556234    1.0   storageobs
e358    -112.43235590614142    1.0   storageobs
e359    -112.07163429938804    1.0   storageobs
e360    -111.670440675959    1.0   storageobs
e361    -111.26331956737025    1.0   storageobs
e362    -110.9499861476821    1.0   storageobs
e363    -110.51455368337948    1.0   storageobs
e364    -110.1082237038015    1.0   storageobs
e365    -109.70189372422357    1.0   storageobs
e366    -109.29556374464559    1.0   storageobs
e367    -111.63340766175774    1.0   storageobs
e368    -111.30387466777296    1.0   storageobs
e369    -110.97434167378819    1.0   storageobs
e370    -110.64480867980343    1.0   storageobs
e371    -110.31527568581865    1.0   storageobs
e372    -109.98574269183389    1.0   storageobs
e373    -109.65620969784911    1.0   storageobs
e374    -111.08940189138414    1.0   storageobs
e375    -110.79609283079365    1.0   storageobs
e376    -110.50278377020318    1.0   storageobs
e377    -110.20947470961269    1.0   storageobs
e378    -109.91616564902219    1.0   storageobs
e379    -110.27244494379623    1.0   storageobs
e380    -109.20832532660559    1.0   storageobs
e381    -108.47771801380674    1.0   storageobs
e382    -108.22259256169158    1.0   storageobs
e383    -107.96746710957646    1.0   storageobs
e384    -107.71234165746135    1.0   storageobs
e385    -107.45721620534623    1.0   storageobs
e386    -107.39877520458758    1.0   storageobs
e387    -107.06497597192987    1.0   storageobs
e388    -106.73117673927214    1.0   storageobs
e389    -106.3973775066144    1.0   storageobs
e390    -106.06357827395669    1.0   storageobs
e391    -105.72977904129897    1.0   storageobs
e392    -105.59589877316508    1.0   storageobs
e393    -105.24182482520952    1.0   storageobs
e394    -105.0090628515679    1.0   storageobs
e395    -104.77641690540766    1.0   storageobs
e396    -104.54377095924742    1.0   storageobs
e397    -104.59952492440385    1.0   storageobs
e398    -104.78585410560828    1.0   storageobs
e399    -104.57590650538775    1.0   storageobs
e400    -104.66281531781988    1.0   storageobs
e401    -104.46375140185692    1.0   storageobs
e402    -104.26468748589396    1.0   storageobs
e403    -104.06562356993101    1.0   storageobs
e404    -105.45692658257069    1.0   storageobs
e405    -105.25578976588135    1.0   storageobs
e406    -104.01284413140803    1.0   storageobs
e407    -102.97565614280828    1.0   storageobs
e408    -102.77632685838461    1.0   storageobs
e409    -102.08824897937322    1.0   storageobs
e410    -101.40017110036176    1.0   storageobs
e411    -103.1696405957473    1.0   storageobs
e412    -103.81195372998909    1.0   storageobs
e413    -103.5496164009369    1.0   storageobs
e414    -103.01910358004213    1.0   storageobs
e415    -102.77486420341977    1.0   storageobs
e416    -102.87236075241344    1.0   storageobs
e417    -103.05495860082706    1.0   storageobs
e418    -103.05261540398028    1.0   storageobs
e419    -103.65131778433009    1.0   storageobs
e420    -103.34828721177837    1.0   storageobs
e421    -103.33622047671076    1.0   storageobs
e422    -103.15913116117528    1.0   storageobs
e423    -102.84713137320668    1.0   storageobs
e424    -102.53513158523813    1.0   storageobs
e425    -101.66498593967528    1.0   storageobs
e426    -101.3597173133014    1.0   storageobs
e427    -101.05444868692751    1.0   storageobs
e428    -100.74918006055361    1.0   storageobs
e429    -100.22768724081538    1.0   storageobs
e430    -99.929169162587002    1.0   storageobs
e431    -99.997105695946601    1.0   storageobs
e432    -99.687606492053817    1.0   storageobs
e433    -99.675316697745146    1.0   storageobs
e434    -99.385002324439213    1.0   storageobs
e435    -99.094687951133281    1.0   storageobs
e436    -99.405210957580351    1.0   storageobs
e437    -99.04303872912179    1.0   storageobs
e438    -99.022163303371258    1.0   storageobs
e439    -98.276025510286047    1.0   storageobs
e440    -98.756386978251854    1.0   storageobs
e441    -98.376845280896418    1.0   storageobs
e442    -98.175391551710618    1.0   storageobs
e443    -97.780296189092212    1.0   storageobs
e444    -97.420409664701694    1.0   storageobs
e445    -97.100198459856799    1.0   storageobs
e446    -96.95350347303571    1.0   storageobs
e447    -96.604810110926593    1.0   storageobs
e448    -96.238629445465961    1.0   storageobs
e449    -95.659714362946133    1.0   storageobs
e450    -95.362094898668843    1.0   storageobs
e451    -94.98314250568842    1.0   storageobs
e452    -94.499773723497    1.0   storageobs
e453    -94.124721711092263    1.0   storageobs
e454    -93.819409864521546    1.0   storageobs
e455    -93.716351519059302    1.0   storageobs
e456    -93.198674993751908    1.0   storageobs
e457    -92.685048459055452    1.0   storageobs
e458    -92.234989079860213    1.0   storageobs
e459    -91.784929700664989    1.0   storageobs
e460    -91.701614383117359    1.0   storageobs
e461    -91.113295968315498    1.0   storageobs
e462    -90.524977553513622    1.0   storageobs
e463    -90.710534730133048    1.0   storageobs
e464    -90.182517623308826    1.0   storageobs
e465    -89.732394067247114    1.0   storageobs
e466    -89.1849452406951    1.0   storageobs
e467    -88.916844138942125    1.0   storageobs
e468    -88.35512807647747    1.0   storageobs
e469    -87.793412014012787    1.0   storageobs
e470    -86.927389676379235    1.0   storageobs
e471    -87.116122738170091    1.0   storageobs
e472    -86.436439611773508    1.0   storageobs
e473    -86.00642602657534    1.0   storageobs
e474    -85.656158760703406    1.0   storageobs
e475    -84.865837817095311    1.0   storageobs
e476    -84.444809493728201    1.0   storageobs
e477    -84.02378117036109    1.0   storageobs
e478    -84.146273086053966    1.0   storageobs
e479    -83.507395493450304    1.0   storageobs
e480    -82.868517900846626    1.0   storageobs
e481    -82.229640308242978    1.0   storageobs
e482    -81.618842462256012    1.0   storageobs
e483    -80.817923709402919    1.0   storageobs
e484    -81.151399456308766    1.0   storageobs
e485    -80.700703242241985    1.0   storageobs
e486    -80.192204568368922    1.0   storageobs
e487    -79.440134398768549    1.0   storageobs
e488    -78.981261500010817    1.0   storageobs
e489    -77.999488497083775    1.0   storageobs
e490    -77.523131231656549    1.0   storageobs
e491    -76.864638841630935    1.0   storageobs
e492    -76.371625883540716    1.0   storageobs
e493    -75.878612925450483    1.0   storageobs
e494    -75.31984691522031    1.0   storageobs
e495    -75.016402787436959    1.0   storageobs
e496    -74.778261901952476    1.0   storageobs
e497    -74.269672116522912    1.0   storageobs
e498    -73.761082331093334    1.0   storageobs
e499    -73.670681038070512    1.0   storageobs
e500    -73.18626775230436    1.0   storageobs
e501    -72.701854466538165    1.0   storageobs
e502    -72.866944998675507    1.0   storageobs
e503    -73.125140150375202    1.0   storageobs
e504    -72.505584478920738    1.0   storageobs
e505    -71.886028807466218    1.0   storageobs
e506    -71.517021209213922    1.0   storageobs
e507    -70.626292933571648    1.0   storageobs
e508    -68.869334356534708    1.0   storageobs
e509    -68.681917450239396    1.0   storageobs
e510    -68.054817340020179    1.0   storageobs
e511    -66.868342231668265    1.0   storageobs
e512    -66.271762303804735    1.0   storageobs
e513    -65.167226854504122    1.0   storageobs
e514    -65.51368182089908    1.0   storageobs
e515    -64.60916287634879    1.0   storageobs
e516    -64.16238834478429    1.0   storageobs
e517    -63.089292002125596    1.0   storageobs
e518    -62.621718030277933    1.0   storageobs
e519    -63.865047527413807    1.0   storageobs
e520    -63.230464850780635    1.0   storageobs
e521    -62.595882174147469    1.0   storageobs
e522    -61.961299497514297    1.0   storageobs
e523    -62.811356113727598    1.0   storageobs
e524    -62.362765568872717    1.0   storageobs
e525    -61.825305983789477    1.0   storageobs
e526    -60.040050192412345    1.0   storageobs
e527    -60.819468631375358    1.0   storageobs
e528    -59.066132878321703    1.0   storageobs
e529    -58.27381737168227    1.0   storageobs
e530    -57.481501865042823    1.0   storageobs
e531    -56.689186358403383    1.0   storageobs
e532    -56.109359169560889    1.0   storageobs
e533    -55.310689535968955    1.0   storageobs
e534    -56.816563909816786    1.0   storageobs
e535    -54.566403294267054    1.0   storageobs
e536    -51.045349673496872    1.0   storageobs
e537    -54.335915992358515    1.0   storageobs
e538    -53.400648678007535    1.0   storageobs
e539    -53.758724289038163    1.0   storageobs
e540    -53.045119634097134    1.0   storageobs
e541    -50.863809989381394    1.0   storageobs
e542    -49.926692958649163    1.0   storageobs
e543    -49.042059863648099    1.0   storageobs
e544    -48.096181394763825    1.0   storageobs
e545    -47.150302925879551    1.0   storageobs
e546    -47.978177939679085    1.0   storageobs
e547    -47.475318680813231    1.0   storageobs
e548    -46.740234708831892    1.0   storageobs
e549    -46.277825629975212    1.0   storageobs
e550    -45.580468643347025    1.0   storageobs
e551    -46.892975438562118    1.0   storageobs
e552    -46.569361690435684    1.0   storageobs
e553    -46.82468829768824    1.0   storageobs
e554    -46.213287946497665    1.0   storageobs
e555    -45.601887595307076    1.0   storageobs
e556    -44.990487244116494    1.0   storageobs
e557    -44.379086892925912    1.0   storageobs
e558    -43.767686541735337    1.0   storageobs
e559    -43.156286190544755    1.0   storageobs
e560    -41.507668537662376    1.0   storageobs
e561    -40.837470644478813    1.0   storageobs
e562    -40.167272751295251    1.0   storageobs
e563    -39.497074858111695    1.0   storageobs
e564    -38.826876964928132    1.0   storageobs
e565    -38.156679071744563    1.0   storageobs
e566    -36.392785502093993    1.0   storageobs
e567    -38.293162937772031    1.0   storageobs
e568    -38.245332722879581    1.0   storageobs
e569    -44.000506032279198    1.0   storageobs
e570    -45.487564788543565    1.0   storageobs
e571    -43.809546544527358    1.0   storageobs
e572    -42.131528300511164    1.0   storageobs
e573    -40.453510056494949    1.0   storageobs
e574    -38.775491812478755    1.0   storageobs
e575    -37.097473568462554    1.0   storageobs
e576    -36.597295039256814    1.0   storageobs
e577    -34.911562094698859    1.0   storageobs
e578    -33.484212953793836    1.0   storageobs
e579    -31.729606033800859    1.0   storageobs
e580    -29.661402609120589    1.0   storageobs
e581    -27.619846186082867    1.0   storageobs
e582    -25.578289763045149    1.0   storageobs
e583    -23.536733340007423    1.0   storageobs
e584    -32.314005870390538    1.0   storageobs
e585    -31.534414579319407    1.0   storageobs
e586    -30.754823288248264    1.0   storageobs
e587    -29.975231997177133    1.0   storageobs
e588    -29.812517766588638    1.0   storageobs
e589    -30.161717639707103    1.0   storageobs
e590    -28.573568075395787    1.0   storageobs
e591    -29.576298912778419    1.0   storageobs
e592    -30.904543159546819    1.0   storageobs
e593    -30.509407714413044    1.0   storageobs
e594    -30.114272269279265    1.0   storageobs
e595    -30.745416945291094    1.0   storageobs
e596    -30.438183232317737    1.0   storageobs
e597    -30.121402480672707    1.0   storageobs
e598    -28.954229765725778    1.0   storageobs
e599    -28.920660472754275    1.0   storageobs
e600    -32.010973872699573    1.0   storageobs
e601    -31.136321851428296    1.0   storageobs
e602    -30.279955475879522    1.0   storageobs
e603    -30.667631691817483    1.0   storageobs
e604    -29.735069405818376    1.0   storageobs
e605    -28.802507119819275    1.0   storageobs
e606    -26.8281021848024    1.0   storageobs
e607    -26.255509771367883    1.0   storageobs
e608    -25.328771654175501    1.0   storageobs
e609    -25.710334611835442    1.0   storageobs
e610    -24.855345321655577    1.0   storageobs
e611    -25.250015610182924    1.0   storageobs
e612    -27.192414046946816    1.0   storageobs
e613    -26.732812169869042    1.0   storageobs
e614    -26.273210292791266    1.0   storageobs
e615    -25.813608415713485    1.0   storageobs
e616    -25.354006538635712    1.0   storageobs