pcf
* control data
restart  estimation
    3   841     1     0     1
    1     1 double point   1   0   0
   5.0  2.0   0.3  0.03    10
  3.0   3.0 0.001  0
  0.1
   30  0.01     4     3  0.01     3
    1     1     1
* parameter groups
sy_knot      relative 0.01  0.0  switch  2.0 parabolic
* parameter data
sy_knot_1   none relative   0.2000000      0.01  1    sy_knot    1.0  0.0 1
sy_knot_2   none relative   0.3500000      0.01  1    sy_knot    1.0  0.0 1
sy_knot_3   none relative   0.5500000      0.01  1    sy_knot    1.0  0.0 1
* observation groups
storageobs
* observation data
e1    -219.55757454956193    1.0   storageobs
e2    -219.46723073037447    1.0   storageobs
e3    -219.37688691118694    1.0   storageobs
e4    -219.28654309199948    1.0   storageobs
e5    -219.19619927281195    1.0   storageobs
e6    -219.10585545362449    1.0   storageobs
e7    -219.01551163443699    1.0   storageobs
e8    -218.92516781524949    1.0   storageobs
e9    -218.834823996062    1.0   storageobs
e10    -218.7444801768745    1.0   storageobs
e11    -218.65413635768701    1.0   storageobs
e12    -218.56379253849951    1.0   storageobs
e13    -218.47344871931205    1.0   storageobs
e14    -218.38310490012452    1.0   storageobs
e15    -218.29276108093705    1.0   storageobs
e16    -218.20241726174956    1.0   storageobs
e17    -218.11207344256206    1.0   storageobs
e18    -218.02172962337457    1.0   storageobs
e19    -217.93138580418707    1.0   storageobs
e20    -217.84104198499958    1.0   storageobs
e21    -217.75069816581208    1.0   storageobs
e22    -217.66035434662462    1.0   storageobs
e23    -217.57001052743709    1.0   storageobs
e24    -216.61382786905142    1.0   storageobs
e25    -216.53559289781245    1.0   storageobs
e26    -216.45735792657351    1.0   storageobs
e27    -216.37912295533454    1.0   storageobs
e28    -216.30088798409557    1.0   storageobs
e29    -216.22265301285665    1.0   storageobs
e30    -216.14441804161768    1.0   storageobs
e31    -216.06618307037874    1.0   storageobs
e32    -215.98794809913977    1.0   storageobs
e33    -215.9097131279008    1.0   storageobs
e34    -215.83147815666189    1.0   storageobs
e35    -215.75324318542289    1.0   storageobs
e36    -215.67500821418398    1.0   storageobs
e37    -215.59677324294501    1.0   storageobs
e38    -215.51853827170603    1.0   storageobs
e39    -215.44030330046709    1.0   storageobs
e40    -215.36206832922812    1.0   storageobs
e41    -215.28383335798921    1.0   storageobs
e42    -215.20559838675024    1.0   storageobs
e43    -215.12736341551127    1.0   storageobs
e44    -215.04912844427233    1.0   storageobs
e45    -214.97089347303336    1.0   storageobs
e46    -214.89265850179439    1.0   storageobs
e47    -214.81442353055544    1.0   storageobs
e48    -214.7361885593165    1.0   storageobs
e49    -214.65795358807756    1.0   storageobs
e50    -214.57971861683859    1.0   storageobs
e51    -214.50148364559962    1.0   storageobs
e52    -214.42324867436068    1.0   storageobs
e53    -214.34501370312174    1.0   storageobs
e54    -214.26677873188279    1.0   storageobs
e55    -213.67664658843154    1.0   storageobs
e56    -213.5876275905045    1.0   storageobs
e57    -213.49860859257751    1.0   storageobs
e58    -213.40958959465047    1.0   storageobs
e59    -213.32057059672343    1.0   storageobs
e60    -213.23155159879641    1.0   storageobs
e61    -213.1425326008694    1.0   storageobs
e62    -213.05351360294236    1.0   storageobs
e63    -212.96449460501535    1.0   storageobs
e64    -212.8754756070883    1.0   storageobs
e65    -212.78645660916129    1.0   storageobs
e66    -212.69743761123425    1.0   storageobs
e67    -212.60841861330724    1.0   storageobs
e68    -212.51939961538022    1.0   storageobs
e69    -212.43038061745318    1.0   storageobs
e70    -212.34136161952614    1.0   storageobs
e71    -212.25234262159915    1.0   storageobs
e72    -212.16332362367211    1.0   storageobs
e73    -212.07430462574507    1.0   storageobs
e74    -211.98528562781806    1.0   storageobs
e75    -211.89626662989104    1.0   storageobs
e76    -211.807247631964    1.0   storageobs
e77    -211.71822863403699    1.0   storageobs
e78    -211.62920963610998    1.0   storageobs
e79    -211.54019063818293    1.0   storageobs
e80    -211.45117164025592    1.0   storageobs
e81    -211.36215264232888    1.0   storageobs
e82    -211.27313364440187    1.0   storageobs
e83    -211.18411464647482    1.0   storageobs
e84    -211.09509564854781    1.0   storageobs
e85    -211.0060766506208    1.0   storageobs
e86    -210.91705765269376    1.0   storageobs
e87    -210.82803865476671    1.0   storageobs
e88    -210.73901965683973    1.0   storageobs
e89    -210.65000065891269    1.0   storageobs
e90    -210.56098166098565    1.0   storageobs
e91    -210.47196266305863    1.0   storageobs
e92    -210.38294366513162    1.0   storageobs
e93    -210.29392466720458    1.0   storageobs
e94    -210.20490566927757    1.0   storageobs
e95    -210.11588667135055    1.0   storageobs
e96    -210.02686767342351    1.0   storageobs
e97    -209.93784867549647    1.0   storageobs
e98    -209.84882967756948    1.0   storageobs
e99    -209.75981067964244    1.0   storageobs
e100    -209.6707916817154    1.0   storageobs
e101    -209.58177268378839    1.0   storageobs
e102    -209.49275368586137    1.0   storageobs
e103    -209.40373468793433    1.0   storageobs
e104    -209.31471569000732    1.0   storageobs
e105    -209.22569669208031    1.0   storageobs
e106    -209.13667769415326    1.0   storageobs
e107    -209.04765869622625    1.0   storageobs
e108    -208.95863969829921    1.0   storageobs
e109    -208.8696207003722    1.0   storageobs
e110    -208.78060170244515    1.0   storageobs
e111    -208.69158270451814    1.0   storageobs
e112    -208.60256370659113    1.0   storageobs
e113    -208.51354470866409    1.0   storageobs
e114    -208.42452571073704    1.0   storageobs
e115    -208.33550671281006    1.0   storageobs
e116    -208.26009556469202    1.0   storageobs
e117    -208.14462597849402    1.0   storageobs
e118    -208.02915639229602    1.0   storageobs
e119    -207.91368680609801    1.0   storageobs
e120    -210.81125871355255    1.0   storageobs
e121    -210.58708343351267    1.0   storageobs
e122    -210.36290815347274    1.0   storageobs
e123    -210.13873287343282    1.0   storageobs
e124    -209.91455759339291    1.0   storageobs
e125    -209.69038231335298    1.0   storageobs
e126    -209.46620703331311    1.0   storageobs
e127    -209.24203175327321    1.0   storageobs
e128    -209.01785647323331    1.0   storageobs
e129    -208.79368119319338    1.0   storageobs
e130    -208.56950591315345    1.0   storageobs
e131    -208.34533063311355    1.0   storageobs
e132    -208.12115535307365    1.0   storageobs
e133    -207.89698007303375    1.0   storageobs
e134    -207.67280479299384    1.0   storageobs
e135    -207.44862951295394    1.0   storageobs
e136    -207.22445423291401    1.0   storageobs
e137    -207.00027895287408    1.0   storageobs
e138    -206.77610367283418    1.0   storageobs
e139    -206.55192839279425    1.0   storageobs
e140    -206.32775311275438    1.0   storageobs
e141    -206.10357783271445    1.0   storageobs
e142    -205.87940255267458    1.0   storageobs
e143    -205.65522727263465    1.0   storageobs
e144    -205.43105199259472    1.0   storageobs
e145    -205.20687671255482    1.0   storageobs
e146    -204.98270143251492    1.0   storageobs
e147    -204.75852615247501    1.0   storageobs
e148    -204.53435087243508    1.0   storageobs
e149    -204.31017559239515    1.0   storageobs
e150    -204.08600031235528    1.0   storageobs
e151    -203.86182503231535    1.0   storageobs
e152    -203.63764975227545    1.0   storageobs
e153    -203.41347447223555    1.0   storageobs
e154    -203.18929919219565    1.0   storageobs
e155    -202.96512391215572    1.0   storageobs
e156    -202.74094863211585    1.0   storageobs
e157    -202.51677335207592    1.0   storageobs
e158    -202.29259807203599    1.0   storageobs
e159    -202.06842279199608    1.0   storageobs
e160    -201.84424751195615    1.0   storageobs
e161    -201.62007223191623    1.0   storageobs
e162    -201.39589695187635    1.0   storageobs
e163    -201.17172167183642    1.0   storageobs
e164    -200.94754639179655    1.0   storageobs
e165    -200.72337111175662    1.0   storageobs
e166    -203.10190309938727    1.0   storageobs
e167    -202.79790955238158    1.0   storageobs
e168    -202.49391600537592    1.0   storageobs
e169    -202.18992245837018    1.0   storageobs
e170    -201.88592891136454    1.0   storageobs
e171    -201.58193536435883    1.0   storageobs
e172    -201.27794181735314    1.0   storageobs
e173    -200.97394827034745    1.0   storageobs
e174    -200.66995472334173    1.0   storageobs
e175    -200.36596117633604    1.0   storageobs
e176    -200.06196762933035    1.0   storageobs
e177    -199.75797408232467    1.0   storageobs
e178    -199.45398053531898    1.0   storageobs
e179    -199.14998698831332    1.0   storageobs
e180    -198.8459934413076    1.0   storageobs
e181    -198.54199989430191    1.0   storageobs
e182    -198.23800634729619    1.0   storageobs
e183    -197.93401280029053    1.0   storageobs
e184    -197.63001925328481    1.0   storageobs
e185    -197.32602570627915    1.0   storageobs
e186    -197.02203215927346    1.0   storageobs
e187    -196.71803861226775    1.0   storageobs
e188    -196.41404506526206    1.0   storageobs
e189    -196.11005151825637    1.0   storageobs
e190    -195.80605797125065    1.0   storageobs
e191    -195.50206442424499    1.0   storageobs
e192    -195.19807087723927    1.0   storageobs
e193    -194.89407733023359    1.0   storageobs
e194    -194.5900837832279    1.0   storageobs
e195    -194.28609023622221    1.0   storageobs
e196    -193.98209668921652    1.0   storageobs
e197    -193.67810314221083    1.0   storageobs
e198    -193.37410959520511    1.0   storageobs
e199    -193.07011604819942    1.0   storageobs
e200    -192.76612250119373    1.0   storageobs
e201    -192.46212895418805    1.0   storageobs
e202    -192.15813540718239    1.0   storageobs
e203    -191.8541418601767    1.0   storageobs
e204    -191.55014831317098    1.0   storageobs
e205    -191.24615476616529    1.0   storageobs
e206    -190.9421612191596    1.0   storageobs
e207    -190.63816767215388    1.0   storageobs
e208    -190.33417412514819    1.0   storageobs
e209    -190.03018057814251    1.0   storageobs
e210    -189.72618703113679    1.0   storageobs
e211    -189.42219348413113    1.0   storageobs
e212    -189.11819993712544    1.0   storageobs
e213    -188.81420639011975    1.0   storageobs
e214    -188.51021284311403    1.0   storageobs
e215    -188.20621929610837    1.0   storageobs
e216    -187.90222574910266    1.0   storageobs
e217    -187.59823220209697    1.0   storageobs
e218    -187.29423865509128    1.0   storageobs
e219    -188.95288850781358    1.0   storageobs
e220    -188.67427523076185    1.0   storageobs
e221    -185.81437347217246    1.0   storageobs
e222    -185.45846391685097    1.0   storageobs
e223    -185.10255436152946    1.0   storageobs
e224    -184.74664480620794    1.0   storageobs
e225    -184.39073525088645    1.0   storageobs
e226    -184.03482569556493    1.0   storageobs
e227    -183.67891614024344    1.0   storageobs
e228    -183.32300658492193    1.0   storageobs
e229    -182.96709702960041    1.0   storageobs
e230    -182.61118747427889    1.0   storageobs
e231    -182.2552779189574    1.0   storageobs
e232    -181.89936836363592    1.0   storageobs
e233    -185.27074916580369    1.0   storageobs
e234    -185.13463720639851    1.0   storageobs
e235    -184.99852524699332    1.0   storageobs
e236    -184.86241328758817    1.0   storageobs
e237    -184.72630132818296    1.0   storageobs
e238    -184.5901893687778    1.0   storageobs
e239    -184.45407740937262    1.0   storageobs
e240    -184.31796544996743    1.0   storageobs
e241    -184.18185349056225    1.0   storageobs
e242    -184.04574153115709    1.0   storageobs
e243    -183.90962957175188    1.0   storageobs
e244    -183.77351761234672    1.0   storageobs
e245    -183.63740565294154    1.0   storageobs
e246    -183.50129369353635    1.0   storageobs
e247    -183.36518173413117    1.0   storageobs
e248    -183.22906977472599    1.0   storageobs
e249    -183.0929578153208    1.0   storageobs
e250    -184.64624653390374    1.0   storageobs
e251    -184.46324888119833    1.0   storageobs
e252    -184.28025122849294    1.0   storageobs
e253    -184.09725357578756    1.0   storageobs
e254    -183.91425592308215    1.0   storageobs
e255    -183.73125827037677    1.0   storageobs
e256    -183.54826061767139    1.0   storageobs
e257    -183.36526296496598    1.0   storageobs
e258    -183.1822653122606    1.0   storageobs
e259    -182.99926765955522    1.0   storageobs
e260    -182.81627000684981    1.0   storageobs
e261    -182.63327235414442    1.0   storageobs
e262    -182.45027470143904    1.0   storageobs
e263    -182.26727704873363    1.0   storageobs
e264    -182.08427939602825    1.0   storageobs
e265    -181.90128174332287    1.0   storageobs
e266    -181.71828409061746    1.0   storageobs
e267    -179.54194641109098    1.0   storageobs
e268    -179.39955302604611    1.0   storageobs
e269    -179.25715964100124    1.0   storageobs
e270    -179.11476625595631    1.0   storageobs
e271    -178.97237287091144    1.0   storageobs
e272    -178.82997948586655    1.0   storageobs
e273    -178.68758610082165    1.0   storageobs
e274    -178.54519271577678    1.0   storageobs
e275    -178.96729099969971    1.0   storageobs
e276    -178.81606673054023    1.0   storageobs
e277    -178.66484246138074    1.0   storageobs
e278    -178.51361819222134    1.0   storageobs
e279    -178.36239392306183    1.0   storageobs
e280    -178.2111696539024    1.0   storageobs
e281    -178.05994538474295    1.0   storageobs
e282    -177.90872111558346    1.0   storageobs
e283    -177.757496846424    1.0   storageobs
e284    -177.60627257726452    1.0   storageobs
e285    -177.45504830810509    1.0   storageobs
e286    -177.30382403894563    1.0   storageobs
e287    -177.15259976978615    1.0   storageobs
e288    -177.00137550062672    1.0   storageobs
e289    -176.85015123146724    1.0   storageobs
e290    -177.53576142339008    1.0   storageobs
e291    -177.32440693748575    1.0   storageobs
e292    -177.11305245158152    1.0   storageobs
e293    -176.90169796567724    1.0   storageobs
e294    -176.69034347977291    1.0   storageobs
e295    -176.47898899386868    1.0   storageobs
e296    -174.70450251806474    1.0   storageobs
e297    -174.51992062554632    1.0   storageobs
e298    -174.33533873302798    1.0   storageobs
e299    -174.15075684050956    1.0   storageobs
e300    -173.96617494799116    1.0   storageobs
e301    -173.78159305547277    1.0   storageobs
e302    -173.59701116295437    1.0   storageobs
e303    -173.41242927043601    1.0   storageobs
e304    -173.22784737791761    1.0   storageobs
e305    -173.04326548539919    1.0   storageobs
e306    -172.85868359288082    1.0   storageobs
e307    -172.67410170036246    1.0   storageobs
e308    -172.48951980784403    1.0   storageobs
e309    -172.30493791532567    1.0   storageobs
e310    -172.12035602280727    1.0   storageobs
e311    -171.93577413028885    1.0   storageobs
e312    -171.75119223777048    1.0   storageobs
e313    -171.56661034525206    1.0   storageobs
e314    -171.38202845273369    1.0   storageobs
e315    -171.1974465602153    1.0   storageobs
e316    -171.01286466769693    1.0   storageobs
e317    -170.82828277517851    1.0   storageobs
e318    -170.64370088266014    1.0   storageobs
e319    -170.45911899014172    1.0   storageobs
e320    -170.27453709762335    1.0   storageobs
e321    -170.08995520510499    1.0   storageobs
e322    -169.90537331258656    1.0   storageobs
e323    -170.7620224110924    1.0   storageobs
e324    -170.51476920246975    1.0   storageobs
e325    -171.19148416556703    1.0   storageobs
e326    -170.98205272280234    1.0   storageobs
e327    -170.77262128003764    1.0   storageobs
e328    -173.58957564163768    1.0   storageobs
e329    -173.3590389123205    1.0   storageobs
e330    -173.12850218300321    1.0   storageobs
e331    -172.89796545368594    1.0   storageobs
e332    -172.66742872436873    1.0   storageobs
e333    -172.52755509034628    1.0   storageobs
e334    -172.31512601551742    1.0   storageobs
e335    -173.05307411466396    1.0   storageobs
e336    -172.84868753539473    1.0   storageobs
e337    -172.64430095612551    1.0   storageobs
e338    -172.43991437685634    1.0   storageobs
e339    -172.23552779758714    1.0   storageobs
e340    -172.03114121831797    1.0   storageobs
e341    -172.70150590692447    1.0   storageobs
e342    -172.56591444795291    1.0   storageobs
e343    -173.87142164474395    1.0   storageobs
e344    -173.66784399261061    1.0   storageobs
e345    -173.4642663404772    1.0   storageobs
e346    -173.26068868834381    1.0   storageobs
e347    -173.2217877454934    1.0   storageobs
e348    -173.02172742341469    1.0   storageobs
e349    -172.82166710133595    1.0   storageobs
e350    -172.62160677925723    1.0   storageobs
e351    -172.42154645717855    1.0   storageobs
e352    -172.22148613509978    1.0   storageobs
e353    -172.0214258130211    1.0   storageobs
e354    -171.82136549094241    1.0   storageobs
e355    -172.25754805187194    1.0   storageobs
e356    -172.5786976622494    1.0   storageobs
e357    -172.38350541438763    1.0   storageobs
e358    -172.18831316652589    1.0   storageobs
e359    -172.07673843260557    1.0   storageobs
e360    -171.88212618935214    1.0   storageobs
e361    -171.4495499342334    1.0   storageobs
e362    -171.26943412540922    1.0   storageobs
e363    -171.08931831658506    1.0   storageobs
e364    -170.90920250776088    1.0   storageobs
e365    -170.72908669893667    1.0   storageobs
e366    -170.54897089011254    1.0   storageobs
e367    -170.36885508128833    1.0   storageobs
e368    -170.18873927246415    1.0   storageobs
e369    -170.00862346363999    1.0   storageobs
e370    -169.82850765481581    1.0   storageobs
e371    -169.6483918459916    1.0   storageobs
e372    -169.46827603716741    1.0   storageobs
e373    -169.28816022834326    1.0   storageobs
e374    -169.2037858397257    1.0   storageobs
e375    -169.01381397200407    1.0   storageobs
e376    -168.82384210428239    1.0   storageobs
e377    -168.63387023656077    1.0   storageobs
e378    -168.44389836883914    1.0   storageobs
e379    -168.25392650111749    1.0   storageobs
e380    -168.06395463339584    1.0   storageobs
e381    -167.87398276567421    1.0   storageobs
e382    -168.82008399008998    1.0   storageobs
e383    -168.68450202642882    1.0   storageobs
e384    -168.54892006276759    1.0   storageobs
e385    -168.41333809910643    1.0   storageobs
e386    -168.27775613544526    1.0   storageobs
e387    -168.14217417178406    1.0   storageobs
e388    -168.0065922081229    1.0   storageobs
e389    -167.8710102444617    1.0   storageobs
e390    -167.73542828080051    1.0   storageobs
e391    -167.59984631713934    1.0   storageobs
e392    -167.46426435347817    1.0   storageobs
e393    -167.32868238981695    1.0   storageobs
e394    -167.19310042615581    1.0   storageobs
e395    -167.05751846249461    1.0   storageobs
e396    -166.92193649883342    1.0   storageobs
e397    -166.78635453517225    1.0   storageobs
e398    -166.65077257151108    1.0   storageobs
e399    -166.66163916027691    1.0   storageobs
e400    -166.52345412048726    1.0   storageobs
e401    -166.56509388123189    1.0   storageobs
e402    -166.43266297106419    1.0   storageobs
e403    -166.30023206089658    1.0   storageobs
e404    -166.16780115072888    1.0   storageobs
e405    -166.03537024056118    1.0   storageobs
e406    -165.90293933039351    1.0   storageobs
e407    -165.77050842022587    1.0   storageobs
e408    -165.6380775100582    1.0   storageobs
e409    -165.50564659989053    1.0   storageobs
e410    -164.71750476399279    1.0   storageobs
e411    -164.57109256281211    1.0   storageobs
e412    -164.0888017018016    1.0   storageobs
e413    -163.50465392660229    1.0   storageobs
e414    -163.35523539676188    1.0   storageobs
e415    -163.20581686692142    1.0   storageobs
e416    -163.05639833708105    1.0   storageobs
e417    -162.90697980724062    1.0   storageobs
e418    -162.81824688514112    1.0   storageobs
e419    -162.67204309127229    1.0   storageobs
e420    -162.52583929740345    1.0   storageobs
e421    -162.37963550353456    1.0   storageobs
e422    -162.23343170966572    1.0   storageobs
e423    -162.08722791579689    1.0   storageobs
e424    -161.94102412192805    1.0   storageobs
e425    -161.79482032805922    1.0   storageobs
e426    -164.81006524236352    1.0   storageobs
e427    -164.5786274325929    1.0   storageobs
e428    -164.34718962282221    1.0   storageobs
e429    -164.11575181305162    1.0   storageobs
e430    -165.93009229538404    1.0   storageobs
e431    -165.6663270558858    1.0   storageobs
e432    -165.40256181638762    1.0   storageobs
e433    -165.13879657688938    1.0   storageobs
e434    -164.87503133739119    1.0   storageobs
e435    -164.61126609789298    1.0   storageobs
e436    -164.34750085839477    1.0   storageobs
e437    -164.30884515448705    1.0   storageobs
e438    -164.02509090456033    1.0   storageobs
e439    -163.74133665463364    1.0   storageobs
e440    -163.45758240470698    1.0   storageobs
e441    -163.1738281547803    1.0   storageobs
e442    -162.89007390485364    1.0   storageobs
e443    -162.60631965492692    1.0   storageobs
e444    -162.13357912302493    1.0   storageobs
e445    -162.0369665384448    1.0   storageobs
e446    -161.63255709049133    1.0   storageobs
e447    -161.22814764253789    1.0   storageobs
e448    -160.82373819458442    1.0   storageobs
e449    -160.41932874663095    1.0   storageobs
e450    -160.50776040980756    1.0   storageobs
e451    -160.24269700854185    1.0   storageobs
e452    -159.97763360727615    1.0   storageobs
e453    -159.75292713718923    1.0   storageobs
e454    -159.48674434105499    1.0   storageobs
e455    -159.22056154492077    1.0   storageobs
e456    -158.95437874878658    1.0   storageobs
e457    -158.68819595265236    1.0   storageobs
e458    -158.42201315651818    1.0   storageobs
e459    -158.15583036038396    1.0   storageobs
e460    -157.88964756424974    1.0   storageobs
e461    -157.62346476811555    1.0   storageobs
e462    -157.35728197198131    1.0   storageobs
e463    -157.09109917584709    1.0   storageobs
e464    -156.26476233963663    1.0   storageobs
e465    -156.01478593150748    1.0   storageobs
e466    -155.63873551997767    1.0   storageobs
e467    -154.99553422150026    1.0   storageobs
e468    -154.75305155422402    1.0   storageobs
e469    -154.51056888694782    1.0   storageobs
e470    -154.62964268415777    1.0   storageobs
e471    -154.38647395676415    1.0   storageobs
e472    -154.14330522937055    1.0   storageobs
e473    -153.90013650197693    1.0   storageobs
e474    -153.96654317061183    1.0   storageobs
e475    -154.08815627354073    1.0   storageobs
e476    -153.76693436810035    1.0   storageobs
e477    -153.44571246265997    1.0   storageobs
e478    -152.92022278044917    1.0   storageobs
e479    -153.36235566082723    1.0   storageobs
e480    -153.03830557100244    1.0   storageobs
e481    -152.71425548117764    1.0   storageobs
e482    -152.39020539135285    1.0   storageobs
e483    -152.06615530152806    1.0   storageobs
e484    -151.7421052117032    1.0   storageobs
e485    -151.41805512187844    1.0   storageobs
e486    -152.09944121449954    1.0   storageobs
e487    -153.28372020718788    1.0   storageobs
e488    -152.62023887313998    1.0   storageobs
e489    -151.95675753909219    1.0   storageobs
e490    -151.23853752891861    1.0   storageobs
e491    -150.54397163823629    1.0   storageobs
e492    -149.84940574755399    1.0   storageobs
e493    -149.15483985687163    1.0   storageobs
e494    -150.20641261947068    1.0   storageobs
e495    -149.72345371123723    1.0   storageobs
e496    -149.45087438994841    1.0   storageobs
e497    -149.17829506865957    1.0   storageobs
e498    -150.78429861009425    1.0   storageobs
e499    -149.583955583403    1.0   storageobs
e500    -149.2502394083219    1.0   storageobs
e501    -149.1302666044254    1.0   storageobs
e502    -148.91453271559826    1.0   storageobs
e503    -148.69879882677117    1.0   storageobs
e504    -148.48306493794399    1.0   storageobs
e505    -148.213569773617    1.0   storageobs
e506    -148.00994124995816    1.0   storageobs
e507    -147.80631272629927    1.0   storageobs
e508    -147.6026842026404    1.0   storageobs
e509    -147.39905567898157    1.0   storageobs
e510    -147.19542715532268    1.0   storageobs
e511    -146.99179863166381    1.0   storageobs
e512    -146.14287562729822    1.0   storageobs
e513    -145.9262541040973    1.0   storageobs
e514    -145.7096325808964    1.0   storageobs
e515    -145.49301105769547    1.0   storageobs
e516    -145.27638953449463    1.0   storageobs
e517    -145.0597680112937    1.0   storageobs
e518    -144.99855865803815    1.0   storageobs
e519    -144.77015024725705    1.0   storageobs
e520    -144.54174183647592    1.0   storageobs
e521    -144.31333342569482    1.0   storageobs
e522    -144.51738162214809    1.0   storageobs
e523    -144.29915671090117    1.0   storageobs
e524    -144.08093179965422    1.0   storageobs
e525    -144.71532145920563    1.0   storageobs
e526    -144.47607966374105    1.0   storageobs
e527    -144.23683786827644    1.0   storageobs
e528    -144.01539568541924    1.0   storageobs
e529    -143.75971534747325    1.0   storageobs
e530    -143.50403500952723    1.0   storageobs
e531    -143.24835467158124    1.0   storageobs
e532    -142.99267433363522    1.0   storageobs
e533    -141.19940891833861    1.0   storageobs
e534    -140.85571147859258    1.0   storageobs
e535    -140.59494013680188    1.0   storageobs
e536    -140.16778191383773    1.0   storageobs
e537    -139.87005056398229    1.0   storageobs
e538    -139.58919780136617    1.0   storageobs
e539    -140.56404131491419    1.0   storageobs
e540    -139.96819693903163    1.0   storageobs
e541    -138.89579218673359    1.0   storageobs
e542    -138.617246754148    1.0   storageobs
e543    -138.33870132156244    1.0   storageobs
e544    -138.06015588897682    1.0   storageobs
e545    -137.78161045639123    1.0   storageobs
e546    -137.50306502380562    1.0   storageobs
e547    -137.22451959122006    1.0   storageobs
e548    -136.94597415863444    1.0   storageobs
e549    -139.42324317517694    1.0   storageobs
e550    -139.18533761671353    1.0   storageobs
e551    -145.17027798053849    1.0   storageobs
e552    -144.78361879444648    1.0   storageobs
e553    -144.39695960835442    1.0   storageobs
e554    -144.01030042226245    1.0   storageobs
e555    -143.62364123617041    1.0   storageobs
e556    -143.23698205007844    1.0   storageobs
e557    -144.10362519105314    1.0   storageobs
e558    -143.70811612358395    1.0   storageobs
e559    -143.31260705611479    1.0   storageobs
e560    -142.91709798864562    1.0   storageobs
e561    -142.52158892117646    1.0   storageobs
e562    -142.12607985370727    1.0   storageobs
e563    -141.73057078623808    1.0   storageobs
e564    -141.33506171876891    1.0   storageobs
e565    -140.82300295222376    1.0   storageobs
e566    -140.39174862545926    1.0   storageobs
e567    -139.96049429869478    1.0   storageobs
e568    -139.52923997193031    1.0   storageobs
e569    -139.09798564516581    1.0   storageobs
e570    -142.29045120575339    1.0   storageobs
e571    -141.59593358065453    1.0   storageobs
e572    -140.90141595555568    1.0   storageobs
e573    -140.20689833045682    1.0   storageobs
e574    -139.512380705358    1.0   storageobs
e575    -138.26355920186148    1.0   storageobs
e576    -137.46523966259173    1.0   storageobs
e577    -136.666920123322    1.0   storageobs
e578    -135.86860058405225    1.0   storageobs
e579    -134.78642007464688    1.0   storageobs
e580    -134.03136165395614    1.0   storageobs
e581    -133.27630323326539    1.0   storageobs
e582    -133.05034929795764    1.0   storageobs
e583    -131.57079188186941    1.0   storageobs
e584    -130.75811990664468    1.0   storageobs
e585    -129.94544793141995    1.0   storageobs
e586    -129.13277595619525    1.0   storageobs
e587    -128.32010398097054    1.0   storageobs
e588    -127.50743200574581    1.0   storageobs
e589    -126.40016155302402    1.0   storageobs
e590    -125.5173307619965    1.0   storageobs
e591    -124.27694943207432    1.0   storageobs
e592    -123.33878448650242    1.0   storageobs
e593    -125.2682387685947    1.0   storageobs
e594    -122.85500168306784    1.0   storageobs
e595    -121.75238675703038    1.0   storageobs
e596    -120.64977183099289    1.0   storageobs
e597    -119.54715690495547    1.0   storageobs
e598    -118.444541978918    1.0   storageobs
e599    -117.34192705288052    1.0   storageobs
e600    -117.01783191968995    1.0   storageobs
e601    -118.74640680476426    1.0   storageobs
e602    -117.82398370946679    1.0   storageobs
e603    -116.12156719710126    1.0   storageobs
e604    -115.25386691997753    1.0   storageobs
e605    -114.38616664285377    1.0   storageobs
e606    -113.51846636573002    1.0   storageobs
e607    -112.65076608860629    1.0   storageobs
e608    -111.78306581148254    1.0   storageobs
e609    -113.98382334520289    1.0   storageobs
e610    -113.46839389527179    1.0   storageobs
e611    -112.95296444534067    1.0   storageobs
e612    -111.83392636432605    1.0   storageobs
e613    -111.29211331649863    1.0   storageobs
e614    -110.75030026867121    1.0   storageobs
e615    -110.20848722084384    1.0   storageobs
e616    -109.66667417301642    1.0   storageobs