pcf
* control data
restart  estimation
    6  1449     6    0     2
    1     1 double point   1   0   0
   5.0  2.0   0.3  0.03    10
  3.0   3.0 0.001  0
  0.1
   30  0.01     4     3  0.01     3
    1     1     1
* parameter groups
sd           relative 0.01  0.0  switch  2.0 parabolic
theta_s      relative 0.01  0.0  switch  2.0 parabolic
b            relative 0.01  0.0  switch  2.0 parabolic
psi_s        relative 0.01  0.0  switch  2.0 parabolic
Ksmacz0      relative 0.01  0.0  switch  2.0 parabolic
alpha        relative 0.01  0.0  switch  2.0 parabolic
* parameter data
sd          none relative   NaN  0.0      2.0        sd         1.0  0.0  1
theta_s     none relative   NaN  0.01     1          theta_s    1.0  0.0  1
b           none relative   NaN  0.01     20.0       b          1.0  0.0  1
psi_s       none relative   NaN  -1.0     -0.01      psi_s      1.0  0.0  1
Ksmacz0     log  factor     NaN  1.0e-04  1.0e+5  Ksmacz0    1.0  0.0  1
alpha       none relative   NaN  1        20.0       alpha      1.0  0.0  1
* observation groups
storageobs
timeobs
* observation data
e1    -163.58716101760979    1.0   storageobs
e2    -163.48728888156415    1.0   storageobs
e3    -163.38741674551852    1.0   storageobs
e4    -163.28754460947289    1.0   storageobs
e5    -163.18767247342726    1.0   storageobs
e6    -163.08780033738162    1.0   storageobs
e7    -162.98792820133602    1.0   storageobs
e8    -162.88805606529041    1.0   storageobs
e9    -162.78818392924475    1.0   storageobs
e10    -162.68831179319915    1.0   storageobs
e11    -162.58843965715351    1.0   storageobs
e12    -162.48856752110788    1.0   storageobs
e13    -162.38869538506225    1.0   storageobs
e14    -162.28882324901662    1.0   storageobs
e15    -162.18895111297098    1.0   storageobs
e16    -162.08907897692535    1.0   storageobs
e17    -161.98920684087975    1.0   storageobs
e18    -161.88933470483411    1.0   storageobs
e19    -161.78946256878851    1.0   storageobs
e20    -161.68959043274285    1.0   storageobs
e21    -161.58971829669724    1.0   storageobs
e22    -161.48984616065161    1.0   storageobs
e23    -161.38997402460598    1.0   storageobs
e24    -161.29010188856034    1.0   storageobs
e25    -161.19022975251471    1.0   storageobs
e26    -161.09035761646908    1.0   storageobs
e27    -160.99048548042344    1.0   storageobs
e28    -160.89061334437784    1.0   storageobs
e29    -160.79074120833221    1.0   storageobs
e30    -160.6908690722866    1.0   storageobs
e31    -160.59099693624094    1.0   storageobs
e32    -160.49112480019534    1.0   storageobs
e33    -160.3912526641497    1.0   storageobs
e34    -160.29138052810407    1.0   storageobs
e35    -160.19150839205844    1.0   storageobs
e36    -160.09163625601281    1.0   storageobs
e37    -159.99176411996717    1.0   storageobs
e38    -159.89189198392154    1.0   storageobs
e39    -159.79201984787593    1.0   storageobs
e40    -159.6921477118303    1.0   storageobs
e41    -159.5922755757847    1.0   storageobs
e42    -159.49240343973904    1.0   storageobs
e43    -159.39253130369343    1.0   storageobs
e44    -159.2926591676478    1.0   storageobs
e45    -159.19278703160217    1.0   storageobs
e46    -159.09291489555653    1.0   storageobs
e47    -158.9930427595109    1.0   storageobs
e48    -158.89317062346527    1.0   storageobs
e49    -158.79329848741963    1.0   storageobs
e50    -158.69342635137403    1.0   storageobs
e51    -158.5935542153284    1.0   storageobs
e52    -158.49368207928279    1.0   storageobs
e53    -158.39380994323716    1.0   storageobs
e54    -158.29393780719153    1.0   storageobs
e55    -158.19406567114589    1.0   storageobs
e56    -158.09419353510026    1.0   storageobs
e57    -159.23215125372545    1.0   storageobs
e58    -157.89444926300902    1.0   storageobs
e59    -156.55674727229257    1.0   storageobs
e60    -157.69470499091773    1.0   storageobs
e61    -157.59483285487212    1.0   storageobs
e62    -157.49496071882649    1.0   storageobs
e63    -157.39508858278089    1.0   storageobs
e64    -157.29521644673525    1.0   storageobs
e65    -157.19534431068962    1.0   storageobs
e66    -157.09547217464399    1.0   storageobs
e67    -156.99560003859835    1.0   storageobs
e68    -156.89572790255272    1.0   storageobs
e69    -156.79585576650709    1.0   storageobs
e70    -156.69598363046146    1.0   storageobs
e71    -156.59611149441582    1.0   storageobs
e72    -156.49623935837022    1.0   storageobs
e73    -156.39636722232459    1.0   storageobs
e74    -156.29649508627898    1.0   storageobs
e75    -156.19662295023335    1.0   storageobs
e76    -156.09675081418771    1.0   storageobs
e77    -155.99687867814208    1.0   storageobs
e78    -155.89700654209645    1.0   storageobs
e79    -155.79713440605082    1.0   storageobs
e80    -155.69726227000518    1.0   storageobs
e81    -155.59739013395955    1.0   storageobs
e82    -155.49751799791392    1.0   storageobs
e83    -155.39764586186831    1.0   storageobs
e84    -155.29777372582268    1.0   storageobs
e85    -155.19790158977708    1.0   storageobs
e86    -155.09802945373144    1.0   storageobs
e87    -154.99815731768581    1.0   storageobs
e88    -154.89828518164018    1.0   storageobs
e89    -154.79841304559454    1.0   storageobs
e90    -159.25112546552779    1.0   storageobs
e91    -159.0801050290186    1.0   storageobs
e92    -159.19198169968968    1.0   storageobs
e93    -158.98679742718807    1.0   storageobs
e94    -158.7816131546864    1.0   storageobs
e95    -158.57642888218476    1.0   storageobs
e96    -155.19441403390729    1.0   storageobs
e97    -155.01410455816557    1.0   storageobs
e98    -154.8337950824239    1.0   storageobs
e99    -154.65348560668221    1.0   storageobs
e100    -154.47317613094052    1.0   storageobs
e101    -154.29286665519879    1.0   storageobs
e102    -154.11255717945713    1.0   storageobs
e103    -155.42551495004261    1.0   storageobs
e104    -155.21041453214829    1.0   storageobs
e105    -154.995314114254    1.0   storageobs
e106    -154.78021369635965    1.0   storageobs
e107    -154.56511327846533    1.0   storageobs
e108    -154.35001286057104    1.0   storageobs
e109    -154.13491244267672    1.0   storageobs
e110    -153.9198120247824    1.0   storageobs
e111    -153.70471160688808    1.0   storageobs
e112    -153.48961118899376    1.0   storageobs
e113    -153.27451077109947    1.0   storageobs
e114    -153.05941035320512    1.0   storageobs
e115    -152.8443099353108    1.0   storageobs
e116    -152.62920951741648    1.0   storageobs
e117    -152.41410909952216    1.0   storageobs
e118    -152.19900868162784    1.0   storageobs
e119    -151.98390826373353    1.0   storageobs
e120    -151.76880784583921    1.0   storageobs
e121    -151.55370742794489    1.0   storageobs
e122    -151.33860701005059    1.0   storageobs
e123    -151.12350659215625    1.0   storageobs
e124    -150.90840617426196    1.0   storageobs
e125    -150.69330575636761    1.0   storageobs
e126    -150.47820533847332    1.0   storageobs
e127    -150.26310492057897    1.0   storageobs
e128    -150.04800450268468    1.0   storageobs
e129    -149.83290408479036    1.0   storageobs
e130    -151.03206220830316    1.0   storageobs
e131    -150.72578881697109    1.0   storageobs
e132    -149.77215470828077    1.0   storageobs
e133    -149.42280793462646    1.0   storageobs
e134    -149.07346116097222    1.0   storageobs
e135    -148.72411438731791    1.0   storageobs
e136    -148.37476761366364    1.0   storageobs
e137    -148.02542084000936    1.0   storageobs
e138    -147.67607406635508    1.0   storageobs
e139    -147.32672729270081    1.0   storageobs
e140    -146.97738051904656    1.0   storageobs
e141    -146.62803374539229    1.0   storageobs
e142    -144.96293582592983    1.0   storageobs
e143    -144.65350557949253    1.0   storageobs
e144    -144.34407533305526    1.0   storageobs
e145    -144.03464508661793    1.0   storageobs
e146    -143.72521484018066    1.0   storageobs
e147    -143.41578459374335    1.0   storageobs
e148    -143.10635434730605    1.0   storageobs
e149    -142.79692410086878    1.0   storageobs
e150    -142.07943915087631    1.0   storageobs
e151    -141.79724134653762    1.0   storageobs
e152    -141.51504354219887    1.0   storageobs
e153    -141.23284573786015    1.0   storageobs
e154    -140.95064793352142    1.0   storageobs
e155    -140.6684501291827    1.0   storageobs
e156    -140.38625232484401    1.0   storageobs
e157    -140.10405452050529    1.0   storageobs
e158    -139.82185671616654    1.0   storageobs
e159    -140.78464473380984    1.0   storageobs
e160    -140.28870673805665    1.0   storageobs
e161    -139.79276874230348    1.0   storageobs
e162    -139.29683074655031    1.0   storageobs
e163    -138.80089275079712    1.0   storageobs
e164    -138.30495475504395    1.0   storageobs
e165    -137.80901675929078    1.0   storageobs
e166    -137.31307876353756    1.0   storageobs
e167    -136.81714076778439    1.0   storageobs
e168    -136.3212027720312    1.0   storageobs
e169    -137.19480611426647    1.0   storageobs
e170    -136.74992143797121    1.0   storageobs
e171    -138.16002379471291    1.0   storageobs
e172    -139.53192025804722    1.0   storageobs
e173    -139.14018061392471    1.0   storageobs
e174    -138.74844096980223    1.0   storageobs
e175    -139.71190825364678    1.0   storageobs
e176    -139.35603023273757    1.0   storageobs
e177    -139.00015221182832    1.0   storageobs
e178    -138.64427419091908    1.0   storageobs
e179    -138.28839617000983    1.0   storageobs
e180    -137.93251814910064    1.0   storageobs
e181    -137.53316822210761    1.0   storageobs
e182    -137.19877788412299    1.0   storageobs
e183    -136.86438754613837    1.0   storageobs
e184    -136.52999720815376    1.0   storageobs
e185    -135.8104006547446    1.0   storageobs
e186    -136.4716189259974    1.0   storageobs
e187    -136.2985298652473    1.0   storageobs
e188    -136.12544080449723    1.0   storageobs
e189    -135.95235174374716    1.0   storageobs
e190    -135.77926268299706    1.0   storageobs
e191    -135.60617362224696    1.0   storageobs
e192    -135.43308456149688    1.0   storageobs
e193    -135.25999550074681    1.0   storageobs
e194    -135.08690643999668    1.0   storageobs
e195    -135.35413901471307    1.0   storageobs
e196    -135.13650910235023    1.0   storageobs
e197    -134.91887918998736    1.0   storageobs
e198    -134.50357369220882    1.0   storageobs
e199    -134.27937190607892    1.0   storageobs
e200    -134.05517011994903    1.0   storageobs
e201    -133.8309683338191    1.0   storageobs
e202    -133.6067665476892    1.0   storageobs
e203    -133.38256476155928    1.0   storageobs
e204    -134.22070517411277    1.0   storageobs
e205    -134.01482042604147    1.0   storageobs
e206    -133.80893567797017    1.0   storageobs
e207    -133.60305092989881    1.0   storageobs
e208    -133.39716618182757    1.0   storageobs
e209    -133.19128143375625    1.0   storageobs
e210    -132.98539668568498    1.0   storageobs
e211    -132.77951193761365    1.0   storageobs
e212    -132.57362718954238    1.0   storageobs
e213    -132.36774244147105    1.0   storageobs
e214    -132.78713675156777    1.0   storageobs
e215    -132.6383962135489    1.0   storageobs
e216    -132.48965567553    1.0   storageobs
e217    -132.3409151375111    1.0   storageobs
e218    -132.19217459949223    1.0   storageobs
e219    -132.04343406147336    1.0   storageobs
e220    -131.89469352345446    1.0   storageobs
e221    -131.74595298543559    1.0   storageobs
e222    -131.59721244741669    1.0   storageobs
e223    -131.4484719093978    1.0   storageobs
e224    -131.2997313713789    1.0   storageobs
e225    -131.15099083336003    1.0   storageobs
e226    -131.05915493949172    1.0   storageobs
e227    -130.91111388009952    1.0   storageobs
e228    -130.76307282070727    1.0   storageobs
e229    -130.61503176131507    1.0   storageobs
e230    -130.46699070192287    1.0   storageobs
e231    -130.31894964253064    1.0   storageobs
e232    -130.17090858313841    1.0   storageobs
e233    -130.02286752374619    1.0   storageobs
e234    -129.87482646435393    1.0   storageobs
e235    -129.7267854049617    1.0   storageobs
e236    -129.5787443455695    1.0   storageobs
e237    -129.43070328617725    1.0   storageobs
e238    -129.28266222678505    1.0   storageobs
e239    -129.13462116739279    1.0   storageobs
e240    -128.9865801080006    1.0   storageobs
e241    -128.83853904860834    1.0   storageobs
e242    -128.69049798921614    1.0   storageobs
e243    -128.18170304668425    1.0   storageobs
e244    -128.02425026233473    1.0   storageobs
e245    -127.86679747798526    1.0   storageobs
e246    -127.70934469363579    1.0   storageobs
e247    -127.55189190928631    1.0   storageobs
e248    -127.39443912493682    1.0   storageobs
e249    -127.23698634058734    1.0   storageobs
e250    -127.07953355623788    1.0   storageobs
e251    -126.92208077188837    1.0   storageobs
e252    -126.7646279875389    1.0   storageobs
e253    -126.60717520318941    1.0   storageobs
e254    -126.44972241883994    1.0   storageobs
e255    -127.1161285811902    1.0   storageobs
e256    -131.22294392774356    1.0   storageobs
e257    -131.35008764214558    1.0   storageobs
e258    -131.06788049011985    1.0   storageobs
e259    -130.78567333809411    1.0   storageobs
e260    -130.50346618606838    1.0   storageobs
e261    -130.22125903404265    1.0   storageobs
e262    -130.21461595307406    1.0   storageobs
e263    -129.91893411148524    1.0   storageobs
e264    -130.39659471989145    1.0   storageobs
e265    -130.05262687269413    1.0   storageobs
e266    -129.70865902549684    1.0   storageobs
e267    -129.36469117829955    1.0   storageobs
e268    -129.02072333110226    1.0   storageobs
e269    -128.67675548390494    1.0   storageobs
e270    -128.33278763670765    1.0   storageobs
e271    -127.98881978951039    1.0   storageobs
e272    -127.64485194231308    1.0   storageobs
e273    -127.3008840951158    1.0   storageobs
e274    -126.95691624791851    1.0   storageobs
e275    -126.61294840072122    1.0   storageobs
e276    -126.26898055352393    1.0   storageobs
e277    -126.7466411619301    1.0   storageobs
e278    -128.95824270395116    1.0   storageobs
e279    -128.6484755364674    1.0   storageobs
e280    -131.26545353635453    1.0   storageobs
e281    -130.11843733268751    1.0   storageobs
e282    -128.97142112902046    1.0   storageobs
e283    -127.82440492535342    1.0   storageobs
e284    -126.67738872168641    1.0   storageobs
e285    -125.5303725180194    1.0   storageobs
e286    -124.38335631435237    1.0   storageobs
e287    -127.00033431423942    1.0   storageobs
e288    -126.79431666146093    1.0   storageobs
e289    -126.58829900868243    1.0   storageobs
e290    -126.38228135590393    1.0   storageobs
e291    -126.17626370312544    1.0   storageobs
e292    -125.97024605034693    1.0   storageobs
e293    -125.76422839756842    1.0   storageobs
e294    -125.55821074478993    1.0   storageobs
e295    -125.35219309201143    1.0   storageobs
e296    -125.14617543923296    1.0   storageobs
e297    -124.94015778645444    1.0   storageobs
e298    -124.73414013367594    1.0   storageobs
e299    -124.52812248089742    1.0   storageobs
e300    -124.90723354809863    1.0   storageobs
e301    -124.11608717534043    1.0   storageobs
e302    -123.32494080258226    1.0   storageobs
e303    -123.07389364829841    1.0   storageobs
e304    -123.3307772585686    1.0   storageobs
e305    -123.10864643937002    1.0   storageobs
e306    -124.69282280911723    1.0   storageobs
e307    -124.4828287001646    1.0   storageobs
e308    -124.27283459121197    1.0   storageobs
e309    -124.06284048225936    1.0   storageobs
e310    -123.85284637330675    1.0   storageobs
e311    -123.71324341643704    1.0   storageobs
e312    -123.49303686121682    1.0   storageobs
e313    -123.27283030599659    1.0   storageobs
e314    -123.05262375077639    1.0   storageobs
e315    -122.83241719555618    1.0   storageobs
e316    -122.61221064033596    1.0   storageobs
e317    -122.39200408511573    1.0   storageobs
e318    -122.17179752989553    1.0   storageobs
e319    -121.95159097467531    1.0   storageobs
e320    -121.7313844194551    1.0   storageobs
e321    -121.51117786423488    1.0   storageobs
e322    -121.29097130901467    1.0   storageobs
e323    -121.07076475379445    1.0   storageobs
e324    -120.85055819857423    1.0   storageobs
e325    -119.85975657946936    1.0   storageobs
e326    -119.66203748071608    1.0   storageobs
e327    -119.46431838196278    1.0   storageobs
e328    -119.63293090479787    1.0   storageobs
e329    -119.63420723544498    1.0   storageobs
e330    -119.45240797982933    1.0   storageobs
e331    -119.2706087242137    1.0   storageobs
e332    -119.08880946859804    1.0   storageobs
e333    -118.90701021298241    1.0   storageobs
e334    -118.72521095736677    1.0   storageobs
e335    -118.54341170175114    1.0   storageobs
e336    -118.3616124461355    1.0   storageobs
e337    -118.17981319051987    1.0   storageobs
e338    -117.99801393490421    1.0   storageobs
e339    -117.81621467928861    1.0   storageobs
e340    -117.04312515706242    1.0   storageobs
e341    -116.87940785731986    1.0   storageobs
e342    -116.7156905575773    1.0   storageobs
e343    -116.55197325783476    1.0   storageobs
e344    -116.3882559580922    1.0   storageobs
e345    -116.22453865834964    1.0   storageobs
e346    -116.06082135860709    1.0   storageobs
e347    -118.92994135533809    1.0   storageobs
e348    -119.64543993187581    1.0   storageobs
e349    -119.42818054491487    1.0   storageobs
e350    -119.16002389891717    1.0   storageobs
e351    -118.89186725291944    1.0   storageobs
e352    -118.62371060692172    1.0   storageobs
e353    -118.35555396092398    1.0   storageobs
e354    -118.38499695093513    1.0   storageobs
e355    -117.74184191836525    1.0   storageobs
e356    -117.23809029994446    1.0   storageobs
e357    -116.96219319047617    1.0   storageobs
e358    -116.61588968339157    1.0   storageobs
e359    -116.35167887160782    1.0   storageobs
e360    -116.087468059824    1.0   storageobs
e361    -115.82325724804026    1.0   storageobs
e362    -117.98893080966079    1.0   storageobs
e363    -119.81498409395023    1.0   storageobs
e364    -119.41087577472622    1.0   storageobs
e365    -119.06327237050878    1.0   storageobs
e366    -118.71566896629137    1.0   storageobs
e367    -118.36806556207394    1.0   storageobs
e368    -118.02046215785651    1.0   storageobs
e369    -117.67285875363908    1.0   storageobs
e370    -117.32525534942168    1.0   storageobs
e371    -116.91265591231492    1.0   storageobs
e372    -116.31415619282558    1.0   storageobs
e373    -115.99521881261298    1.0   storageobs
e374    -115.38019643756313    1.0   storageobs
e375    -115.07712365378019    1.0   storageobs
e376    -114.77405086999731    1.0   storageobs
e377    -114.4709780862144    1.0   storageobs
e378    -114.16790530243149    1.0   storageobs
e379    -113.8648325186486    1.0   storageobs
e380    -113.52677160919055    1.0   storageobs
e381    -113.21292130798726    1.0   storageobs
e382    -113.01001861774289    1.0   storageobs
e383    -112.70103609534912    1.0   storageobs
e384    -112.39205357295539    1.0   storageobs
e385    -112.08307105056166    1.0   storageobs
e386    -111.77408852816789    1.0   storageobs
e387    -111.46510600577419    1.0   storageobs
e388    -111.15612348338044    1.0   storageobs
e389    -110.84714096098668    1.0   storageobs
e390    -110.41121048687812    1.0   storageobs
e391    -109.99736031969577    1.0   storageobs
e392    -109.69382395885246    1.0   storageobs
e393    -109.3902875980091    1.0   storageobs
e394    -108.98788489052086    1.0   storageobs
e395    -108.67833497587186    1.0   storageobs
e396    -108.36878506122281    1.0   storageobs
e397    -108.05923514657377    1.0   storageobs
e398    -107.78914080039128    1.0   storageobs
e399    -107.4817035042325    1.0   storageobs
e400    -107.17426620807366    1.0   storageobs
e401    -107.25322715703466    1.0   storageobs
e402    -106.92534372472012    1.0   storageobs
e403    -106.59746029240563    1.0   storageobs
e404    -106.26957686009111    1.0   storageobs
e405    -108.21004549154638    1.0   storageobs
e406    -107.98397879600829    1.0   storageobs
e407    -107.88911703113827    1.0   storageobs
e408    -107.6707413534203    1.0   storageobs
e409    -109.18371889402961    1.0   storageobs
e410    -109.01884543646085    1.0   storageobs
e411    -108.85397197889208    1.0   storageobs
e412    -108.68909852132333    1.0   storageobs
e413    -108.52422506375454    1.0   storageobs
e414    -109.18276213802656    1.0   storageobs
e415    -108.40202735014707    1.0   storageobs
e416    -108.25518071106499    1.0   storageobs
e417    -108.58757051736298    1.0   storageobs
e418    -108.48320412368201    1.0   storageobs
e419    -108.37883773000104    1.0   storageobs
e420    -108.27447133632009    1.0   storageobs
e421    -108.1701049426391    1.0   storageobs
e422    -108.06573854895815    1.0   storageobs
e423    -107.96137215527716    1.0   storageobs
e424    -107.85700576159621    1.0   storageobs
e425    -107.75263936791526    1.0   storageobs
e426    -107.47594221426205    1.0   storageobs
e427    -107.37660215747489    1.0   storageobs
e428    -107.21176086602108    1.0   storageobs
e429    -107.11593865549847    1.0   storageobs
e430    -107.0124439702786    1.0   storageobs
e431    -106.9193399160132    1.0   storageobs
e432    -106.82623586174779    1.0   storageobs
e433    -106.67694744591607    1.0   storageobs
e434    -106.58649918013619    1.0   storageobs
e435    -106.49605091435636    1.0   storageobs
e436    -106.40560264857648    1.0   storageobs
e437    -106.70064232543145    1.0   storageobs
e438    -106.6229804047117    1.0   storageobs
e439    -106.54531848399198    1.0   storageobs
e440    -106.46765656327224    1.0   storageobs
e441    -106.38999464255249    1.0   storageobs
e442    -107.38506305360836    1.0   storageobs
e443    -106.60307737256183    1.0   storageobs
e444    -106.16310074039046    1.0   storageobs
e445    -105.41186337815022    1.0   storageobs
e446    -106.74876140585788    1.0   storageobs
e447    -106.58922924685808    1.0   storageobs
e448    -106.24580042000204    1.0   storageobs
e449    -106.17117074406994    1.0   storageobs
e450    -105.94131722978433    1.0   storageobs
e451    -105.77635727450222    1.0   storageobs
e452    -105.61139731922013    1.0   storageobs
e453    -107.4587190621771    1.0   storageobs
e454    -107.19486060611476    1.0   storageobs
e455    -106.93100215005245    1.0   storageobs
e456    -106.66714369399016    1.0   storageobs
e457    -106.50176704225231    1.0   storageobs
e458    -106.26527415746423    1.0   storageobs
e459    -105.99279340110891    1.0   storageobs
e460    -105.1695978908467    1.0   storageobs
e461    -105.28601531781045    1.0   storageobs
e462    -105.06812982104772    1.0   storageobs
e463    -104.85024432428499    1.0   storageobs
e464    -104.79827746287418    1.0   storageobs
e465    -104.5745425550529    1.0   storageobs
e466    -104.86562959054152    1.0   storageobs
e467    -104.62694891909078    1.0   storageobs
e468    -104.30282601816633    1.0   storageobs
e469    -104.56340185783091    1.0   storageobs
e470    -104.66210492188512    1.0   storageobs
e471    -104.44680222131778    1.0   storageobs
e472    -104.23149952075048    1.0   storageobs
e473    -104.14506181537021    1.0   storageobs
e474    -103.67475456855287    1.0   storageobs
e475    -104.18805958056051    1.0   storageobs
e476    -103.89596631183878    1.0   storageobs
e477    -103.60387304311706    1.0   storageobs
e478    -103.31177977439533    1.0   storageobs
e479    -103.03710576482    1.0   storageobs
e480    -102.74466963901072    1.0   storageobs
e481    -102.74681432712053    1.0   storageobs
e482    -102.38517133440965    1.0   storageobs
e483    -102.10352300551581    1.0   storageobs
e484    -101.82187467662196    1.0   storageobs
e485    -101.4453012184462    1.0   storageobs
e486    -100.88354091220101    1.0   storageobs
e487    -100.59205298963306    1.0   storageobs
e488    -100.49753955317107    1.0   storageobs
e489    -100.32535083857029    1.0   storageobs
e490    -100.09926943869678    1.0   storageobs
e491    -100.4272580424123    1.0   storageobs
e492    -100.04470861201885    1.0   storageobs
e493    -99.662159181625412    1.0   storageobs
e494    -99.279609751231945    1.0   storageobs
e495    -98.700213019794461    1.0   storageobs
e496    -98.310142190004896    1.0   storageobs
e497    -97.907401398590352    1.0   storageobs
e498    -98.113634560860149    1.0   storageobs
e499    -97.728511996945926    1.0   storageobs
e500    -96.913530933392963    1.0   storageobs
e501    -96.485694314993992    1.0   storageobs
e502    -96.057857696594951    1.0   storageobs
e503    -95.913391276048415    1.0   storageobs
e504    -95.07599239914228    1.0   storageobs
e505    -94.206867188749641    1.0   storageobs
e506    -94.397003665971056    1.0   storageobs
e507    -94.677240840671359    1.0   storageobs
e508    -94.091867103513806    1.0   storageobs
e509    -93.883042056722289    1.0   storageobs
e510    -93.288942960683229    1.0   storageobs
e511    -92.226100548325036    1.0   storageobs
e512    -91.730567489616462    1.0   storageobs
e513    -90.988549588409924    1.0   storageobs
e514    -91.19699931758835    1.0   storageobs
e515    -90.992169818933448    1.0   storageobs
e516    -90.621349596426555    1.0   storageobs
e517    -90.175021861977001    1.0   storageobs
e518    -90.022921842629785    1.0   storageobs
e519    -89.626027197471586    1.0   storageobs
e520    -89.211244030855241    1.0   storageobs
e521    -88.812997220830397    1.0   storageobs
e522    -88.434489010208409    1.0   storageobs
e523    -88.036005511698207    1.0   storageobs
e524    -87.637522013187976    1.0   storageobs
e525    -86.119783032017196    1.0   storageobs
e526    -85.446966694250762    1.0   storageobs
e527    -84.988525711455978    1.0   storageobs
e528    -84.530084728661208    1.0   storageobs
e529    -84.484657076277585    1.0   storageobs
e530    -83.840693428263066    1.0   storageobs
e531    -83.394662907127767    1.0   storageobs
e532    -82.948632385992454    1.0   storageobs
e533    -82.502601864857141    1.0   storageobs
e534    -82.056571343721842    1.0   storageobs
e535    -82.282456733521414    1.0   storageobs
e536    -83.337648298676768    1.0   storageobs
e537    -82.794904545753226    1.0   storageobs
e538    -82.252160792829685    1.0   storageobs
e539    -83.041886540458734    1.0   storageobs
e540    -82.768624245143016    1.0   storageobs
e541    -83.731207986751855    1.0   storageobs
e542    -82.780040255761406    1.0   storageobs
e543    -81.014504454376066    1.0   storageobs
e544    -80.150124962038376    1.0   storageobs
e545    -79.163951713990613    1.0   storageobs
e546    -78.177778465942851    1.0   storageobs
e547    -77.191605217895088    1.0   storageobs
e548    -75.719511334799378    1.0   storageobs
e549    -74.776154627799471    1.0   storageobs
e550    -73.832797920799564    1.0   storageobs
e551    -74.851628152526558    1.0   storageobs
e552    -75.012434511782416    1.0   storageobs
e553    -75.306139827926302    1.0   storageobs
e554    -74.248944157280903    1.0   storageobs
e555    -72.923573890084313    1.0   storageobs
e556    -72.609559540064126    1.0   storageobs
e557    -73.084690059004231    1.0   storageobs
e558    -76.002070353170467    1.0   storageobs
e559    -74.630380459368808    1.0   storageobs
e560    -73.855867945468063    1.0   storageobs
e561    -75.712652449300933    1.0   storageobs
e562    -71.395228551918208    1.0   storageobs
e563    -70.530032417011228    1.0   storageobs
e564    -68.355262741818194    1.0   storageobs
e565    -65.461759541835008    1.0   storageobs
e566    -63.226898653382598    1.0   storageobs
e567    -65.85324039689246    1.0   storageobs
e568    -69.060473729173282    1.0   storageobs
e569    -66.196481573577628    1.0   storageobs
e570    -61.567707485482707    1.0   storageobs
e571    -61.431436022307345    1.0   storageobs
e572    -57.720428983146654    1.0   storageobs
e573    -63.627423588560049    1.0   storageobs
e574    -61.444305287644532    1.0   storageobs
e575    -60.229259726088152    1.0   storageobs
e576    -60.11884664233024    1.0   storageobs
e577    -59.595692713812568    1.0   storageobs
e578    -58.572135806422956    1.0   storageobs
e579    -57.589207064335    1.0   storageobs
e580    -56.524582138852629    1.0   storageobs
e581    -55.395688377588122    1.0   storageobs
e582    -55.85455524894509    1.0   storageobs
e583    -54.005275182980064    1.0   storageobs
e584    -52.367510924840097    1.0   storageobs
e585    -52.739383844306772    1.0   storageobs
e586    -54.411189856092989    1.0   storageobs
e587    -54.705792249628495    1.0   storageobs
e588    -54.010707037228705    1.0   storageobs
e589    -53.315621824828902    1.0   storageobs
e590    -52.620536612429106    1.0   storageobs
e591    -51.925451400029317    1.0   storageobs
e592    -51.531642552080413    1.0   storageobs
e593    -53.631832663179011    1.0   storageobs
e594    -52.397847206527807    1.0   storageobs
e595    -51.163861749876588    1.0   storageobs
e596    -49.929876293225369    1.0   storageobs
e597    -48.695890836574165    1.0   storageobs
e598    -47.461905379922946    1.0   storageobs
e599    -46.227919923271742    1.0   storageobs
e600    -45.531576963277281    1.0   storageobs
e601    -44.337870513946896    1.0   storageobs
e602    -47.45152144408064    1.0   storageobs
e603    -45.493626056483542    1.0   storageobs
e604    -48.47549852571791    1.0   storageobs
e605    -45.614969341837657    1.0   storageobs