pcf
* control data
restart  estimation
    4   691     4     0     1
    1     1 double point   1   0   0
   5.0  2.0   0.3  0.03    10
  3.0   3.0 0.001  0
  0.1
   30  0.01     4     3  0.01     3
    1     1     1
* parameter groups
sd           relative 0.01  0.0  switch  2.0 parabolic
theta_s      relative 0.01  0.0  switch  2.0 parabolic
b            relative 0.01  0.0  switch  2.0 parabolic
psi_s        relative 0.01  0.0  switch  2.0 parabolic
* parameter data
sd          none relative   NaN  0.0   2.0  sd         1.0  0.0 1
theta_s     none relative   NaN  0.01  1    theta_s    1.0  0.0 1
b           none relative   NaN  0.01  20.0 b          1.0  0.0 1
psi_s       none relative   NaN  -1.0  -0.01  psi_s      1.0  0.0 1
* observation groups
storageobs
* observation data
e1    -149.91197966238036    1.0   storageobs
e2    -149.77672075196415    1.0   storageobs
e3    -149.64146184154788    1.0   storageobs
e4    -149.50620293113167    1.0   storageobs
e5    -149.37094402071546    1.0   storageobs
e6    -149.23568511029922    1.0   storageobs
e7    -149.10042619988297    1.0   storageobs
e8    -148.96516728946676    1.0   storageobs
e9    -148.82990837905052    1.0   storageobs
e10    -148.69464946863428    1.0   storageobs
e11    -148.55939055821807    1.0   storageobs
e12    -148.4241316478018    1.0   storageobs
e13    -148.28887273738559    1.0   storageobs
e14    -148.15361382696938    1.0   storageobs
e15    -148.01835491655311    1.0   storageobs
e16    -147.8830960061369    1.0   storageobs
e17    -147.74783709572066    1.0   storageobs
e18    -147.61257818530441    1.0   storageobs
e19    -147.4773192748882    1.0   storageobs
e20    -147.34206036447196    1.0   storageobs
e21    -147.20680145405572    1.0   storageobs
e22    -147.07154254363951    1.0   storageobs
e23    -146.93628363322324    1.0   storageobs
e24    -146.80102472280703    1.0   storageobs
e25    -148.21227049311074    1.0   storageobs
e26    -146.53050690197458    1.0   storageobs
e27    -144.84874331083839    1.0   storageobs
e28    -146.25998908114209    1.0   storageobs
e29    -146.12473017072585    1.0   storageobs
e30    -145.98947126030964    1.0   storageobs
e31    -145.8542123498934    1.0   storageobs
e32    -145.71895343947716    1.0   storageobs
e33    -145.58369452906095    1.0   storageobs
e34    -145.44843561864474    1.0   storageobs
e35    -145.31317670822847    1.0   storageobs
e36    -145.17791779781226    1.0   storageobs
e37    -145.04265888739602    1.0   storageobs
e38    -144.90739997697978    1.0   storageobs
e39    -144.77214106656356    1.0   storageobs
e40    -144.63688215614732    1.0   storageobs
e41    -144.50162324573108    1.0   storageobs
e42    -144.36636433531487    1.0   storageobs
e43    -144.23110542489863    1.0   storageobs
e44    -144.09584651448239    1.0   storageobs
e45    -143.96058760406618    1.0   storageobs
e46    -143.82532869364991    1.0   storageobs
e47    -143.6900697832337    1.0   storageobs
e48    -143.55481087281746    1.0   storageobs
e49    -143.41955196240121    1.0   storageobs
e50    -143.284293051985    1.0   storageobs
e51    -143.14903414156876    1.0   storageobs
e52    -143.01377523115252    1.0   storageobs
e53    -142.87851632073631    1.0   storageobs
e54    -142.74325741032007    1.0   storageobs
e55    -142.60799849990383    1.0   storageobs
e56    -142.47273958948762    1.0   storageobs
e57    -142.33748067907135    1.0   storageobs
e58    -146.59350537474197    1.0   storageobs
e59    -146.39889375531905    1.0   storageobs
e60    -146.53632008085714    1.0   storageobs
e61    -146.31344242117021    1.0   storageobs
e62    -146.09056476148328    1.0   storageobs
e63    -145.86768710179632    1.0   storageobs
e64    -142.76937867215963    1.0   storageobs
e65    -142.57324591089792    1.0   storageobs
e66    -142.37711314963616    1.0   storageobs
e67    -142.18098038837442    1.0   storageobs
e68    -141.98484762711271    1.0   storageobs
e69    -141.78871486585098    1.0   storageobs
e70    -141.59258210458924    1.0   storageobs
e71    -142.88536211848228    1.0   storageobs
e72    -142.65707562932124    1.0   storageobs
e73    -142.42878914016023    1.0   storageobs
e74    -142.2005026509992    1.0   storageobs
e75    -141.97221616183819    1.0   storageobs
e76    -141.74392967267718    1.0   storageobs
e77    -141.51564318351615    1.0   storageobs
e78    -141.28735669435514    1.0   storageobs
e79    -141.0590702051941    1.0   storageobs
e80    -140.8307837160331    1.0   storageobs
e81    -140.60249722687209    1.0   storageobs
e82    -140.37421073771108    1.0   storageobs
e83    -140.14592424855002    1.0   storageobs
e84    -139.91763775938901    1.0   storageobs
e85    -139.689351270228    1.0   storageobs
e86    -139.46106478106699    1.0   storageobs
e87    -139.23277829190596    1.0   storageobs
e88    -139.00449180274495    1.0   storageobs
e89    -138.77620531358392    1.0   storageobs
e90    -138.54791882442294    1.0   storageobs
e91    -138.3196323352619    1.0   storageobs
e92    -138.09134584610089    1.0   storageobs
e93    -137.86305935693986    1.0   storageobs
e94    -137.63477286777882    1.0   storageobs
e95    -137.40648637861781    1.0   storageobs
e96    -137.17819988945681    1.0   storageobs
e97    -136.94991340029577    1.0   storageobs
e98    -138.22064779374278    1.0   storageobs
e99    -137.90307205561069    1.0   storageobs
e100    -137.50467173587205    1.0   storageobs
e101    -137.15393448240795    1.0   storageobs
e102    -136.80319722894384    1.0   storageobs
e103    -136.45245997547974    1.0   storageobs
e104    -136.10172272201564    1.0   storageobs
e105    -135.75098546855153    1.0   storageobs
e106    -135.40024821508743    1.0   storageobs
e107    -135.0495109616233    1.0   storageobs
e108    -134.69877370815919    1.0   storageobs
e109    -134.34803645469512    1.0   storageobs
e110    -132.78611213104449    1.0   storageobs
e111    -132.47365607298224    1.0   storageobs
e112    -132.16120001491998    1.0   storageobs
e113    -131.8487439568577    1.0   storageobs
e114    -131.53628789879545    1.0   storageobs
e115    -131.22383184073314    1.0   storageobs
e116    -130.91137578267092    1.0   storageobs
e117    -130.59891972460863    1.0   storageobs
e118    -129.76420788062114    1.0   storageobs
e119    -129.47936249111058    1.0   storageobs
e120    -129.19451710159998    1.0   storageobs
e121    -128.90967171208942    1.0   storageobs
e122    -128.62482632257885    1.0   storageobs
e123    -128.33998093306829    1.0   storageobs
e124    -128.0551355435577    1.0   storageobs
e125    -127.77029015404716    1.0   storageobs
e126    -127.48544476453658    1.0   storageobs
e127    -128.62525188376756    1.0   storageobs
e128    -128.09790040908334    1.0   storageobs
e129    -127.57054893439918    1.0   storageobs
e130    -127.043197459715    1.0   storageobs
e131    -126.51584598503084    1.0   storageobs
e132    -125.98849451034665    1.0   storageobs
e133    -125.46114303566249    1.0   storageobs
e134    -124.93379156097829    1.0   storageobs
e135    -124.4064400862941    1.0   storageobs
e136    -123.87908861160994    1.0   storageobs
e137    -124.69689457891458    1.0   storageobs
e138    -124.21610878384105    1.0   storageobs
e139    -125.80076296170175    1.0   storageobs
e140    -127.32473101604516    1.0   storageobs
e141    -126.9031519755322    1.0   storageobs
e142    -126.48157293501922    1.0   storageobs
e143    -127.33951990015152    1.0   storageobs
e144    -126.95405627015651    1.0   storageobs
e145    -126.5685926401615    1.0   storageobs
e146    -126.1831290101665    1.0   storageobs
e147    -125.79766538017147    1.0   storageobs
e148    -125.41220175017646    1.0   storageobs
e149    -124.8950387493372    1.0   storageobs
e150    -124.53402136317538    1.0   storageobs
e151    -124.17300397701358    1.0   storageobs
e152    -123.81198659085172    1.0   storageobs
e153    -123.00152130767657    1.0   storageobs
e154    -123.74535562820465    1.0   storageobs
e155    -123.56440902861323    1.0   storageobs
e156    -123.3834624290218    1.0   storageobs
e157    -123.2025158294304    1.0   storageobs
e158    -123.02156922983893    1.0   storageobs
e159    -122.84062263024752    1.0   storageobs
e160    -122.6596760306561    1.0   storageobs
e161    -122.47872943106468    1.0   storageobs
e162    -122.29778283147323    1.0   storageobs
e163    -122.48091369628618    1.0   storageobs
e164    -121.97392173642776    1.0   storageobs
e165    -121.76374137974312    1.0   storageobs
e166    -121.24514714101534    1.0   storageobs
e167    -121.0296695859678    1.0   storageobs
e168    -120.8141920309202    1.0   storageobs
e169    -120.59871447587267    1.0   storageobs
e170    -120.38323692082514    1.0   storageobs
e171    -120.16775936577757    1.0   storageobs
e172    -120.06852759577863    1.0   storageobs
e173    -119.88608170475074    1.0   storageobs
e174    -119.70363581372284    1.0   storageobs
e175    -119.52118992269493    1.0   storageobs
e176    -119.33874403166701    1.0   storageobs
e177    -119.15629814063908    1.0   storageobs
e178    -118.97385224961118    1.0   storageobs
e179    -118.79140635858329    1.0   storageobs
e180    -118.60896046755538    1.0   storageobs
e181    -118.42651457652747    1.0   storageobs
e182    -118.71607973414871    1.0   storageobs
e183    -118.58169309686711    1.0   storageobs
e184    -118.44730645958543    1.0   storageobs
e185    -118.24038368003971    1.0   storageobs
e186    -118.11298491270101    1.0   storageobs
e187    -117.98558614536236    1.0   storageobs
e188    -117.85818737802364    1.0   storageobs
e189    -117.73078861068497    1.0   storageobs
e190    -117.60338984334629    1.0   storageobs
e191    -117.47599107600759    1.0   storageobs
e192    -117.34859230866887    1.0   storageobs
e193    -117.22119354133019    1.0   storageobs
e194    -117.22613180348917    1.0   storageobs
e195    -117.10709631896103    1.0   storageobs
e196    -116.9880608344329    1.0   storageobs
e197    -116.86902534990472    1.0   storageobs
e198    -116.74998986537659    1.0   storageobs
e199    -116.63095438084842    1.0   storageobs
e200    -116.51191889632032    1.0   storageobs
e201    -116.39288341179216    1.0   storageobs
e202    -116.27384792726403    1.0   storageobs
e203    -116.1548124427359    1.0   storageobs
e204    -116.03577695820772    1.0   storageobs
e205    -115.91674147367958    1.0   storageobs
e206    -115.79770598915145    1.0   storageobs
e207    -115.6786705046233    1.0   storageobs
e208    -115.55963502009516    1.0   storageobs
e209    -115.44059953556703    1.0   storageobs
e210    -115.32156405103888    1.0   storageobs
e211    -114.93699380925457    1.0   storageobs
e212    -114.81490668307316    1.0   storageobs
e213    -114.69281955689176    1.0   storageobs
e214    -114.57073243071032    1.0   storageobs
e215    -114.44864530452894    1.0   storageobs
e216    -114.3265581783475    1.0   storageobs
e217    -114.20447105216607    1.0   storageobs
e218    -114.08238392598466    1.0   storageobs
e219    -113.96029679980325    1.0   storageobs
e220    -113.83820967362183    1.0   storageobs
e221    -113.42577501322137    1.0   storageobs
e222    -113.29463447824359    1.0   storageobs
e223    -113.83630330831491    1.0   storageobs
e224    -117.06901797953489    1.0   storageobs
e225    -117.3634925060358    1.0   storageobs
e226    -117.08793307813951    1.0   storageobs
e227    -116.81237365024319    1.0   storageobs
e228    -116.53681422234695    1.0   storageobs
e229    -116.26125479445065    1.0   storageobs
e230    -116.35106608786649    1.0   storageobs
e231    -116.39647546671199    1.0   storageobs
e232    -116.79090371534674    1.0   storageobs
e233    -116.49436428577242    1.0   storageobs
e234    -116.19782485619811    1.0   storageobs
e235    -115.90128542662379    1.0   storageobs
e236    -115.70707071735151    1.0   storageobs
e237    -115.38662935161067    1.0   storageobs
e238    -115.06618798586987    1.0   storageobs
e239    -114.74574662012905    1.0   storageobs
e240    -114.42530525438822    1.0   storageobs
e241    -114.1048638886474    1.0   storageobs
e242    -113.78442252290657    1.0   storageobs
e243    -113.46398115716576    1.0   storageobs
e244    -113.14353979142493    1.0   storageobs
e245    -113.57727438669411    1.0   storageobs
e246    -115.47519475880023    1.0   storageobs
e247    -115.2166700392148    1.0   storageobs
e248    -117.56540503007864    1.0   storageobs
e249    -116.52222014351506    1.0   storageobs
e250    -115.47903525695146    1.0   storageobs
e251    -114.43585037038788    1.0   storageobs
e252    -113.39266548382429    1.0   storageobs
e253    -112.34948059726071    1.0   storageobs
e254    -111.30629571069713    1.0   storageobs
e255    -113.65503070156092    1.0   storageobs
e256    -113.45982578435422    1.0   storageobs
e257    -113.26462086714747    1.0   storageobs
e258    -113.06941594994075    1.0   storageobs
e259    -112.874211032734    1.0   storageobs
e260    -112.67900611552727    1.0   storageobs
e261    -112.48380119832053    1.0   storageobs
e262    -112.2885962811138    1.0   storageobs
e263    -112.09339136390707    1.0   storageobs
e264    -111.89818644670034    1.0   storageobs
e265    -111.70298152949361    1.0   storageobs
e266    -111.50777661228688    1.0   storageobs
e267    -111.31257169508014    1.0   storageobs
e268    -111.71393944309602    1.0   storageobs
e269    -110.92216186066666    1.0   storageobs
e270    -110.13038427823733    1.0   storageobs
e271    -110.01523812238203    1.0   storageobs
e272    -110.45966584300291    1.0   storageobs
e273    -110.45018618971908    1.0   storageobs
e274    -111.666426725636    1.0   storageobs
e275    -111.40834359308749    1.0   storageobs
e276    -111.15026046053897    1.0   storageobs
e277    -111.08583659518061    1.0   storageobs
e278    -110.88678812365232    1.0   storageobs
e279    -110.78633455915043    1.0   storageobs
e280    -110.58009622473912    1.0   storageobs
e281    -110.3738578903278    1.0   storageobs
e282    -110.1676195559165    1.0   storageobs
e283    -109.96138122150519    1.0   storageobs
e284    -109.75514288709387    1.0   storageobs
e285    -109.54890455268257    1.0   storageobs
e286    -109.34266621827125    1.0   storageobs
e287    -109.13642788385994    1.0   storageobs
e288    -108.93018954944863    1.0   storageobs
e289    -108.72395121503733    1.0   storageobs
e290    -108.51771288062602    1.0   storageobs
e291    -108.31147454621468    1.0   storageobs
e292    -108.10523621180339    1.0   storageobs
e293    -107.85777040851235    1.0   storageobs
e294    -107.662725292772    1.0   storageobs
e295    -107.46768017703162    1.0   storageobs
e296    -107.96374689837502    1.0   storageobs
e297    -107.9858366557024    1.0   storageobs
e298    -107.80976543745803    1.0   storageobs
e299    -107.63369421921364    1.0   storageobs
e300    -107.45762300096928    1.0   storageobs
e301    -107.2815517827249    1.0   storageobs
e302    -107.10548056448053    1.0   storageobs
e303    -106.92940934623617    1.0   storageobs
e304    -106.7533381279918    1.0   storageobs
e305    -106.57726690974744    1.0   storageobs
e306    -106.40119569150303    1.0   storageobs
e307    -106.22512447325867    1.0   storageobs
e308    -105.61645727361879    1.0   storageobs
e309    -105.45365152282817    1.0   storageobs
e310    -105.29084577203754    1.0   storageobs
e311    -105.12804002124692    1.0   storageobs
e312    -104.96523427045628    1.0   storageobs
e313    -104.80242851966563    1.0   storageobs
e314    -104.639622768875    1.0   storageobs
e315    -107.22327813210188    1.0   storageobs
e316    -107.90055083439329    1.0   storageobs
e317    -107.84268717316162    1.0   storageobs
e318    -107.57880586280599    1.0   storageobs
e319    -107.31492455245036    1.0   storageobs
e320    -107.05104324209471    1.0   storageobs
e321    -106.78716193173908    1.0   storageobs
e322    -106.9355017513475    1.0   storageobs
e323    -106.55852995144814    1.0   storageobs
e324    -106.15031164358311    1.0   storageobs
e325    -105.87216643329423    1.0   storageobs
e326    -105.49949143074727    1.0   storageobs
e327    -105.23235836122402    1.0   storageobs
e328    -104.96522529170083    1.0   storageobs
e329    -104.69809222217762    1.0   storageobs
e330    -106.90116574742866    1.0   storageobs
e331    -108.67438866176597    1.0   storageobs
e332    -108.26154550116722    1.0   storageobs
e333    -107.90687071799339    1.0   storageobs
e334    -107.55219593481952    1.0   storageobs
e335    -107.19752115164565    1.0   storageobs
e336    -106.84284636847178    1.0   storageobs
e337    -106.48817158529793    1.0   storageobs
e338    -106.13349680212406    1.0   storageobs
e339    -105.69773457275559    1.0   storageobs
e340    -105.06035031789682    1.0   storageobs
e341    -104.73236198571948    1.0   storageobs
e342    -104.23540702491547    1.0   storageobs
e343    -103.91902578997099    1.0   storageobs
e344    -103.60264455502649    1.0   storageobs
e345    -103.286263320082    1.0   storageobs
e346    -102.9698820851375    1.0   storageobs
e347    -102.65350085019301    1.0   storageobs
e348    -102.31247109614667    1.0   storageobs
e349    -101.98516346532642    1.0   storageobs
e350    -101.80778995934094    1.0   storageobs
e351    -101.48312672470452    1.0   storageobs
e352    -101.15846349006814    1.0   storageobs
e353    -100.83380025543175    1.0   storageobs
e354    -100.50913702079535    1.0   storageobs
e355    -100.18447378615896    1.0   storageobs
e356    -99.859810551522557    1.0   storageobs
e357    -99.535147316886167    1.0   storageobs
e358    -99.226144817994552    1.0   storageobs
e359    -98.723427612603459    1.0   storageobs
e360    -98.405100377698659    1.0   storageobs
e361    -98.086773142793888    1.0   storageobs
e362    -97.753974507960194    1.0   storageobs
e363    -97.432725598006272    1.0   storageobs
e364    -97.111476688052363    1.0   storageobs
e365    -96.790227778098483    1.0   storageobs
e366    -96.596674703856308    1.0   storageobs
e367    -96.280271011763418    1.0   storageobs
e368    -95.963867319670541    1.0   storageobs
e369    -96.087590986143297    1.0   storageobs
e370    -95.741029445088373    1.0   storageobs
e371    -95.394467904033462    1.0   storageobs
e372    -95.047906362978537    1.0   storageobs
e373    -97.034522929856209    1.0   storageobs
e374    -96.791648580438462    1.0   storageobs
e375    -96.689375274516337    1.0   storageobs
e376    -96.450272523316713    1.0   storageobs
e377    -97.827767153574641    1.0   storageobs
e378    -97.637218002948828    1.0   storageobs
e379    -97.446668852323029    1.0   storageobs
e380    -97.256119701697216    1.0   storageobs
e381    -97.065570551071403    1.0   storageobs
e382    -97.623317301332946    1.0   storageobs
e383    -97.038897559009143    1.0   storageobs
e384    -96.028135647479345    1.0   storageobs
e385    -96.377534181252841    1.0   storageobs
e386    -96.243062404559765    1.0   storageobs
e387    -96.108590627866676    1.0   storageobs
e388    -95.974118851173628    1.0   storageobs
e389    -95.839647074480567    1.0   storageobs
e390    -95.705175297787505    1.0   storageobs
e391    -95.570703521094416    1.0   storageobs
e392    -95.436231744401368    1.0   storageobs
e393    -95.301759967708307    1.0   storageobs
e394    -95.005844488050968    1.0   storageobs
e395    -94.876100860940923    1.0   storageobs
e396    -94.71417860281349    1.0   storageobs
e397    -94.586955786902237    1.0   storageobs
e398    -94.393268546476207    1.0   storageobs
e399    -94.271006787207071    1.0   storageobs
e400    -94.148745027937906    1.0   storageobs
e401    -93.880844256878149    1.0   storageobs
e402    -93.759262668985343    1.0   storageobs
e403    -93.637681081092524    1.0   storageobs
e404    -93.516099493199704    1.0   storageobs
e405    -93.796501114115529    1.0   storageobs
e406    -93.689294700006215    1.0   storageobs
e407    -93.582088285896901    1.0   storageobs
e408    -93.474881871787602    1.0   storageobs
e409    -93.362336621467435    1.0   storageobs
e410    -94.394708885646111    1.0   storageobs
e411    -93.54595005121908    1.0   storageobs
e412    -93.166725939124063    1.0   storageobs
e413    -92.336262021237346    1.0   storageobs
e414    -93.835407206328412    1.0   storageobs
e415    -93.616785604608182    1.0   storageobs
e416    -93.164044996874608    1.0   storageobs
e417    -93.084312851778591    1.0   storageobs
e418    -92.921786180570592    1.0   storageobs
e419    -92.712767926327516    1.0   storageobs
e420    -92.503749672084453    1.0   storageobs
e421    -93.954786591945705    1.0   storageobs
e422    -93.664739436890088    1.0   storageobs
e423    -93.37469228183447    1.0   storageobs
e424    -93.084645126778838    1.0   storageobs
e425    -92.772813357505271    1.0   storageobs
e426    -92.596938449991583    1.0   storageobs
e427    -92.292405326797436    1.0   storageobs
e428    -91.460554039361639    1.0   storageobs
e429    -91.663401351381737    1.0   storageobs
e430    -91.430344070504049    1.0   storageobs
e431    -91.197286789626361    1.0   storageobs
e432    -91.14865379243048    1.0   storageobs
e433    -90.908836741440538    1.0   storageobs
e434    -91.146154014372414    1.0   storageobs
e435    -90.892281346721219    1.0   storageobs
e436    -90.814549345545018    1.0   storageobs
e437    -90.995364165717419    1.0   storageobs
e438    -91.092105349767877    1.0   storageobs
e439    -90.855909709569474    1.0   storageobs
e440    -90.619714069371014    1.0   storageobs
e441    -90.446052662323808    1.0   storageobs
e442    -89.956014141608861    1.0   storageobs
e443    -90.423990881074047    1.0   storageobs
e444    -90.109299557733578    1.0   storageobs
e445    -89.794608234393095    1.0   storageobs
e446    -89.479916911052598    1.0   storageobs
e447    -89.277963941488665    1.0   storageobs
e448    -88.934198327714086    1.0   storageobs
e449    -88.899895692309855    1.0   storageobs
e450    -88.421055394395793    1.0   storageobs
e451    -88.074116395534119    1.0   storageobs
e452    -87.744393201283998    1.0   storageobs
e453    -87.340564004604431    1.0   storageobs
e454    -86.765689722207938    1.0   storageobs
e455    -86.207185712880573    1.0   storageobs
e456    -86.208890912281234    1.0   storageobs
e457    -85.927846255728014    1.0   storageobs
e458    -85.605163066517434    1.0   storageobs
e459    -85.628562383975989    1.0   storageobs
e460    -85.19155366860906    1.0   storageobs
e461    -84.754544953242117    1.0   storageobs
e462    -84.31753623787516    1.0   storageobs
e463    -83.700967929514235    1.0   storageobs
e464    -83.307240031632332    1.0   storageobs
e465    -82.844737681655616    1.0   storageobs
e466    -83.189586791524206    1.0   storageobs
e467    -82.97485264852196    1.0   storageobs
e468    -82.335196166955242    1.0   storageobs
e469    -81.910030469399629    1.0   storageobs
e470    -81.484864771844016    1.0   storageobs
e471    -81.301740252469756    1.0   storageobs
e472    -80.546747248850465    1.0   storageobs
e473    -79.71445478458331    1.0   storageobs
e474    -79.830377634773015    1.0   storageobs
e475    -80.015828056390802    1.0   storageobs
e476    -79.457107338465846    1.0   storageobs
e477    -79.362137557402534    1.0   storageobs
e478    -78.636229654654045    1.0   storageobs
e479    -77.801613315571245    1.0   storageobs
e480    -77.332119104508308    1.0   storageobs
e481    -76.641075961257641    1.0   storageobs
e482    -76.801829529819955    1.0   storageobs
e483    -76.586272717644846    1.0   storageobs
e484    -76.226399388000871    1.0   storageobs
e485    -75.900101404609146    1.0   storageobs
e486    -75.470262001636328    1.0   storageobs
e487    -75.073211086826177    1.0   storageobs
e488    -74.538248113009288    1.0   storageobs
e489    -74.148726557524952    1.0   storageobs
e490    -73.773969986000068    1.0   storageobs
e491    -73.384786656499855    1.0   storageobs
e492    -72.610305452558478    1.0   storageobs
e493    -71.264145517144897    1.0   storageobs
e494    -70.674532128097297    1.0   storageobs
e495    -70.218995495237905    1.0   storageobs
e496    -69.763458862378499    1.0   storageobs
e497    -69.828337273011655    1.0   storageobs
e498    -69.044163864482243    1.0   storageobs
e499    -68.906974166848656    1.0   storageobs
e500    -68.43009121769299    1.0   storageobs
e501    -67.953208268537338    1.0   storageobs
e502    -67.476325319381672    1.0   storageobs
e503    -67.720185356294223    1.0   storageobs
e504    -68.588303184507438    1.0   storageobs
e505    -68.025102789227049    1.0   storageobs
e506    -67.461902393946687    1.0   storageobs
e507    -68.075910684070465    1.0   storageobs
e508    -67.804462508414503    1.0   storageobs
e509    -68.52750248804908    1.0   storageobs
e510    -67.461967134339176    1.0   storageobs
e511    -65.669276757895275    1.0   storageobs
e512    -64.860211206049655    1.0   storageobs
e513    -63.887691276808475    1.0   storageobs
e514    -62.915171347567266    1.0   storageobs
e515    -61.252442889052325    1.0   storageobs
e516    -59.758747113443427    1.0   storageobs
e517    -58.896164734419024    1.0   storageobs
e518    -58.033582355394628    1.0   storageobs
e519    -58.766339932415562    1.0   storageobs
e520    -58.834914700502459    1.0   storageobs
e521    -58.888872785362381    1.0   storageobs
e522    -57.741345294479352    1.0   storageobs
e523    -56.613235687533994    1.0   storageobs
e524    -56.433603186434141    1.0   storageobs
e525    -56.695096095626539    1.0   storageobs
e526    -58.98706807250376    1.0   storageobs
e527    -57.805516784212003    1.0   storageobs
e528    -57.034124846898649    1.0   storageobs
e529    -58.559505311366209    1.0   storageobs
e530    -55.397692122570135    1.0   storageobs
e531    -54.694608744043521    1.0   storageobs
e532    -52.873588733138661    1.0   storageobs
e533    -50.682250881673355    1.0   storageobs
e534    -48.813157900160995    1.0   storageobs
e535    -50.898577958038217    1.0   storageobs
e536    -53.457313284229507    1.0   storageobs
e537    -51.084915289002531    1.0   storageobs
e538    -47.384270772580358    1.0   storageobs
e539    -48.10811288591858    1.0   storageobs
e540    -44.87624992353841    1.0   storageobs
e541    -50.171604375172002    1.0   storageobs
e542    -48.109452105122202    1.0   storageobs
e543    -47.389996081427888    1.0   storageobs
e544    -46.237485142382937    1.0   storageobs
e545    -45.83902007834611    1.0   storageobs
e546    -44.937847676622617    1.0   storageobs
e547    -44.118814843273022    1.0   storageobs
e548    -43.197026477641906    1.0   storageobs
e549    -43.306413324004275    1.0   storageobs
e550    -43.880355419642093    1.0   storageobs
e551    -42.271205546717553    1.0   storageobs
e552    -41.26522167522571    1.0   storageobs
e553    -41.552809817712451    1.0   storageobs
e554    -43.145112574471817    1.0   storageobs
e555    -43.633757799599685    1.0   storageobs
e556    -43.073145243414459    1.0   storageobs
e557    -42.512532687229253    1.0   storageobs
e558    -41.951920131044041    1.0   storageobs
e559    -41.391307574858828    1.0   storageobs
e560    -41.830255391580636    1.0   storageobs
e561    -43.590423817106725    1.0   storageobs
e562    -42.595446960485745    1.0   storageobs
e563    -41.600470103864758    1.0   storageobs
e564    -40.605493247243778    1.0   storageobs
e565    -38.577352550436878    1.0   storageobs
e566    -37.455770624974512    1.0   storageobs
e567    -36.334188699512161    1.0   storageobs
e568    -36.238467672121786    1.0   storageobs
e569    -35.109326339538171    1.0   storageobs
e570    -39.3524008811629    1.0   storageobs
e571    -37.530950300027136    1.0   storageobs
e572    -40.426462906791002    1.0   storageobs
e573    -37.872485037987978    1.0   storageobs
e574    -35.318507169184954    1.0   storageobs
e575    -38.842257472334914    1.0   storageobs
e576    -37.676849442390917    1.0   storageobs
e577    -35.894611567940061    1.0   storageobs
e578    -34.043418906427299    1.0   storageobs
e579    -32.192226244914536    1.0   storageobs
e580    -31.754997291582484    1.0   storageobs
e581    -30.346208400150367    1.0   storageobs
e582    -28.433381604289064    1.0   storageobs
e583    -26.52055480842775    1.0   storageobs
e584    -25.445951624274848    1.0   storageobs
e585    -23.657859655422239    1.0   storageobs
e586    -21.869767686569627    1.0   storageobs
e587    -20.081675717717019    1.0   storageobs
e588    -30.004469011857353    1.0   storageobs
e589    -30.444608783800419    1.0   storageobs
e590    -29.533352795108044    1.0   storageobs
e591    -31.554509788272227    1.0   storageobs
e592    -24.949043921171846    1.0   storageobs
e593    -26.970200914336033    1.0   storageobs
e594    -26.115816954078696    1.0   storageobs
e595    -25.261432993821359    1.0   storageobs
e596    -24.407049033564025    1.0   storageobs
e597    -36.311074405142875    1.0   storageobs
e598    -32.471117839548256    1.0   storageobs
e599    -26.024798125531142    1.0   storageobs
e600    -21.45264409485673    1.0   storageobs
e601    -26.804590689191279    1.0   storageobs
e602    -29.625728926222447    1.0   storageobs
e603    -28.750754240053574    1.0   storageobs
e604    -27.969411666800802    1.0   storageobs
e605    -27.188069093548041    1.0   storageobs
e606    -27.396563951346721    1.0   storageobs
e607    -27.755726317422091    1.0   storageobs
e608    -29.836035722081657    1.0   storageobs
e609    -28.741965013546263    1.0   storageobs
e610    -27.564124510489606    1.0   storageobs
e611    -25.474375554130653    1.0   storageobs
e612    -24.561932882037109    1.0   storageobs